--------------------------------------------------------------------------
[[3411,1],0]: A high-performance Open MPI point-to-point messaging module
was unable to find any relevant network interfaces:

Module: OpenFabrics (openib)
  Host: hyd37

Another transport will be used instead, although this may result in
lower performance.
--------------------------------------------------------------------------
/*---------------------------------------------------------------------------*\
  =========                 |
  \\      /  F ield         | OpenFOAM: The Open Source CFD Toolbox
   \\    /   O peration     | Website:  https://openfoam.org
    \\  /    A nd           | Version:  6
     \\/     M anipulation  |
\*---------------------------------------------------------------------------*/
Build  : 6-eb0ce5d792a1
Exec   : pisoFoam -parallel
Date   : Jul 09 2022
Time   : 19:56:08
Host   : "hyd37"
PID    : 105290
I/O    : uncollated
Case   : /students/rtanuharja/turbSimCoMe/precursor_kEpsilonCoarse
nProcs : 3
Slaves : 
2
(
"hyd37.105291"
"hyd37.105292"
)

Pstream initialized with:
    floatTransfer      : 0
    nProcsSimpleSum    : 0
    commsType          : nonBlocking
    polling iterations : 0
fileModificationChecking : Monitoring run-time modified files using timeStampMaster (fileModificationSkew 10)
allowSystemOperations : Allowing user-supplied system call operations

// * * * * * * * * * * * * * * * * * * * * * * * * * * * * * * * * * * * * * //
Create time

Create mesh for time = 0

Reading field p

Reading field U

Reading/calculating face flux field phi

Selecting incompressible transport model Newtonian
Selecting turbulence model type RAS
Selecting RAS turbulence model kEpsilon
RAS
{
    RASModel        kEpsilon;
    turbulence      on;
    printCoeffs     on;
    Cmu             0.09;
    C1              1.44;
    C2              1.92;
    C3              0;
    sigmak          1;
    sigmaEps        1.3;
}

No MRF models present

Creating finite volume options from "constant/fvOptions"

Selecting finite volume options model type meanVelocityForce
    Source: momentumSource
    - selecting all cells
    - selected 1800 cell(s) with volume 0.45
    Initial pressure gradient = 0


Starting time loop

Time = 0.05

Courant Number mean: 0.0234004 max: 0.0280894
smoothSolver:  Solving for Ux, Initial residual = 0.00326385, Final residual = 5.99578e-06, No Iterations 4
smoothSolver:  Solving for Uy, Initial residual = 0.0396688, Final residual = 8.77031e-06, No Iterations 6
smoothSolver:  Solving for Uz, Initial residual = 0.0973554, Final residual = 4.95154e-06, No Iterations 7
Pressure gradient source: uncorrected Ubar = 0.38987, pressure gradient = 0.00339324
GAMG:  Solving for p, Initial residual = 0.981669, Final residual = 0.0957102, No Iterations 48
time step continuity errors : sum local = 4.64904e-09, global = 1.43851e-19, cumulative = 1.43851e-19
Pressure gradient source: uncorrected Ubar = 0.389896, pressure gradient = 0.00271641
GAMG:  Solving for p, Initial residual = 0.0259321, Final residual = 9.9535e-07, No Iterations 408
time step continuity errors : sum local = 3.41895e-13, global = 1.88623e-19, cumulative = 3.32474e-19
Pressure gradient source: uncorrected Ubar = 0.389898, pressure gradient = 0.00265681
smoothSolver:  Solving for epsilon, Initial residual = 0.0115693, Final residual = 4.22171e-06, No Iterations 4
smoothSolver:  Solving for k, Initial residual = 0.00588985, Final residual = 3.63575e-06, No Iterations 5
ExecutionTime = 0.63 s  ClockTime = 1 s

Time = 0.1

Courant Number mean: 0.023394 max: 0.0280797
smoothSolver:  Solving for Ux, Initial residual = 0.00184633, Final residual = 3.22851e-06, No Iterations 4
smoothSolver:  Solving for Uy, Initial residual = 0.309752, Final residual = 6.76313e-06, No Iterations 9
smoothSolver:  Solving for Uz, Initial residual = 0.337161, Final residual = 4.6535e-06, No Iterations 9
Pressure gradient source: uncorrected Ubar = 0.389991, pressure gradient = 0.00287831
GAMG:  Solving for p, Initial residual = 0.162428, Final residual = 0.0161665, No Iterations 13
time step continuity errors : sum local = 4.95602e-09, global = -7.19367e-20, cumulative = 2.60537e-19
Pressure gradient source: uncorrected Ubar = 0.389993, pressure gradient = 0.00283458
GAMG:  Solving for p, Initial residual = 0.0410944, Final residual = 9.69146e-07, No Iterations 407
time step continuity errors : sum local = 2.07706e-13, global = 2.54972e-20, cumulative = 2.86035e-19
Pressure gradient source: uncorrected Ubar = 0.389993, pressure gradient = 0.00283151
smoothSolver:  Solving for epsilon, Initial residual = 0.00738492, Final residual = 4.98274e-06, No Iterations 4
smoothSolver:  Solving for k, Initial residual = 0.00589097, Final residual = 5.86539e-06, No Iterations 4
ExecutionTime = 1.12 s  ClockTime = 1 s

Time = 0.15

Courant Number mean: 0.0233948 max: 0.0280779
smoothSolver:  Solving for Ux, Initial residual = 0.0010783, Final residual = 8.40347e-06, No Iterations 3
smoothSolver:  Solving for Uy, Initial residual = 0.139026, Final residual = 4.04364e-06, No Iterations 9
smoothSolver:  Solving for Uz, Initial residual = 0.170542, Final residual = 6.12436e-06, No Iterations 9
Pressure gradient source: uncorrected Ubar = 0.389997, pressure gradient = 0.00290581
GAMG:  Solving for p, Initial residual = 0.0513079, Final residual = 0.00503154, No Iterations 20
time step continuity errors : sum local = 9.58553e-10, global = 4.37565e-20, cumulative = 3.29791e-19
Pressure gradient source: uncorrected Ubar = 0.389998, pressure gradient = 0.00289243
GAMG:  Solving for p, Initial residual = 0.0274992, Final residual = 9.93401e-07, No Iterations 347
time step continuity errors : sum local = 1.63426e-13, global = 9.5371e-20, cumulative = 4.25162e-19
Pressure gradient source: uncorrected Ubar = 0.389998, pressure gradient = 0.00289274
smoothSolver:  Solving for epsilon, Initial residual = 0.00513432, Final residual = 5.45971e-06, No Iterations 4
smoothSolver:  Solving for k, Initial residual = 0.00436842, Final residual = 8.52559e-06, No Iterations 4
ExecutionTime = 1.55 s  ClockTime = 2 s

Time = 0.2

Courant Number mean: 0.0233956 max: 0.0280765
smoothSolver:  Solving for Ux, Initial residual = 0.000885202, Final residual = 7.908e-06, No Iterations 3
smoothSolver:  Solving for Uy, Initial residual = 0.0910672, Final residual = 7.27626e-06, No Iterations 8
smoothSolver:  Solving for Uz, Initial residual = 0.0951595, Final residual = 5.03356e-06, No Iterations 8
Pressure gradient source: uncorrected Ubar = 0.389998, pressure gradient = 0.00295746
GAMG:  Solving for p, Initial residual = 0.0437607, Final residual = 0.00430529, No Iterations 46
time step continuity errors : sum local = 6.76811e-10, global = 6.12449e-20, cumulative = 4.86407e-19
Pressure gradient source: uncorrected Ubar = 0.389998, pressure gradient = 0.00294137
GAMG:  Solving for p, Initial residual = 0.0182225, Final residual = 9.94521e-07, No Iterations 349
time step continuity errors : sum local = 1.26422e-13, global = -2.10069e-20, cumulative = 4.654e-19
Pressure gradient source: uncorrected Ubar = 0.389998, pressure gradient = 0.00294022
smoothSolver:  Solving for epsilon, Initial residual = 0.00401911, Final residual = 6.34195e-06, No Iterations 4
smoothSolver:  Solving for k, Initial residual = 0.00332629, Final residual = 2.94639e-06, No Iterations 5
ExecutionTime = 2.01 s  ClockTime = 2 s

Time = 0.25

Courant Number mean: 0.0233963 max: 0.0280754
smoothSolver:  Solving for Ux, Initial residual = 0.00074071, Final residual = 9.4616e-06, No Iterations 3
smoothSolver:  Solving for Uy, Initial residual = 0.0612014, Final residual = 5.03162e-06, No Iterations 8
smoothSolver:  Solving for Uz, Initial residual = 0.0676834, Final residual = 7.49794e-06, No Iterations 7
Pressure gradient source: uncorrected Ubar = 0.389998, pressure gradient = 0.00299931
GAMG:  Solving for p, Initial residual = 0.0449215, Final residual = 0.00448182, No Iterations 34
time step continuity errors : sum local = 5.67709e-10, global = 4.72279e-20, cumulative = 5.12628e-19
Pressure gradient source: uncorrected Ubar = 0.389998, pressure gradient = 0.00297971
GAMG:  Solving for p, Initial residual = 0.0185775, Final residual = 9.67976e-07, No Iterations 350
time step continuity errors : sum local = 1.0173e-13, global = 5.50544e-20, cumulative = 5.67683e-19
Pressure gradient source: uncorrected Ubar = 0.389999, pressure gradient = 0.00297693
smoothSolver:  Solving for epsilon, Initial residual = 0.00336435, Final residual = 7.56348e-06, No Iterations 4
smoothSolver:  Solving for k, Initial residual = 0.00289026, Final residual = 2.65963e-06, No Iterations 5
ExecutionTime = 2.45 s  ClockTime = 2 s

Time = 0.3

Courant Number mean: 0.0233968 max: 0.0280744
smoothSolver:  Solving for Ux, Initial residual = 0.000666088, Final residual = 3.71987e-06, No Iterations 4
smoothSolver:  Solving for Uy, Initial residual = 0.0383156, Final residual = 7.42427e-06, No Iterations 7
smoothSolver:  Solving for Uz, Initial residual = 0.0557471, Final residual = 6.17002e-06, No Iterations 7
Pressure gradient source: uncorrected Ubar = 0.389999, pressure gradient = 0.00301511
GAMG:  Solving for p, Initial residual = 0.0408822, Final residual = 0.00405991, No Iterations 19
time step continuity errors : sum local = 4.2432e-10, global = 1.53882e-19, cumulative = 7.21564e-19
Pressure gradient source: uncorrected Ubar = 0.389999, pressure gradient = 0.00300366
GAMG:  Solving for p, Initial residual = 0.01394, Final residual = 9.95414e-07, No Iterations 339
time step continuity errors : sum local = 8.94492e-14, global = -1.1946e-20, cumulative = 7.09618e-19
Pressure gradient source: uncorrected Ubar = 0.389999, pressure gradient = 0.0030019
smoothSolver:  Solving for epsilon, Initial residual = 0.0029507, Final residual = 8.87016e-06, No Iterations 4
smoothSolver:  Solving for k, Initial residual = 0.00258096, Final residual = 2.66548e-06, No Iterations 5
ExecutionTime = 2.88 s  ClockTime = 3 s

Time = 0.35

Courant Number mean: 0.0233972 max: 0.0280734
smoothSolver:  Solving for Ux, Initial residual = 0.000617051, Final residual = 4.37172e-06, No Iterations 4
smoothSolver:  Solving for Uy, Initial residual = 0.0324289, Final residual = 5.51539e-06, No Iterations 7
smoothSolver:  Solving for Uz, Initial residual = 0.0515078, Final residual = 5.08119e-06, No Iterations 7
Pressure gradient source: uncorrected Ubar = 0.389999, pressure gradient = 0.00304028
GAMG:  Solving for p, Initial residual = 0.0360607, Final residual = 0.00300684, No Iterations 11
time step continuity errors : sum local = 2.69044e-10, global = 1.83874e-19, cumulative = 8.93493e-19
Pressure gradient source: uncorrected Ubar = 0.389999, pressure gradient = 0.00302751
GAMG:  Solving for p, Initial residual = 0.0138647, Final residual = 9.90337e-07, No Iterations 264
time step continuity errors : sum local = 7.80374e-14, global = 1.17375e-19, cumulative = 1.01087e-18
Pressure gradient source: uncorrected Ubar = 0.389999, pressure gradient = 0.00302524
smoothSolver:  Solving for epsilon, Initial residual = 0.00264515, Final residual = 2.43418e-06, No Iterations 5
smoothSolver:  Solving for k, Initial residual = 0.00223677, Final residual = 3.05029e-06, No Iterations 5
ExecutionTime = 3.22 s  ClockTime = 3 s

Time = 0.4

Courant Number mean: 0.0233976 max: 0.0280725
smoothSolver:  Solving for Ux, Initial residual = 0.00058093, Final residual = 4.82449e-06, No Iterations 4
smoothSolver:  Solving for Uy, Initial residual = 0.035386, Final residual = 7.0609e-06, No Iterations 7
smoothSolver:  Solving for Uz, Initial residual = 0.045707, Final residual = 7.85055e-06, No Iterations 6
Pressure gradient source: uncorrected Ubar = 0.389999, pressure gradient = 0.00306089
GAMG:  Solving for p, Initial residual = 0.0393039, Final residual = 0.00389161, No Iterations 12
time step continuity errors : sum local = 3.03185e-10, global = 3.0799e-20, cumulative = 1.04167e-18
Pressure gradient source: uncorrected Ubar = 0.389999, pressure gradient = 0.00304767
GAMG:  Solving for p, Initial residual = 0.0144421, Final residual = 9.99895e-07, No Iterations 292
time step continuity errors : sum local = 6.96917e-14, global = 1.3119e-20, cumulative = 1.05479e-18
Pressure gradient source: uncorrected Ubar = 0.389999, pressure gradient = 0.00304503
smoothSolver:  Solving for epsilon, Initial residual = 0.00239125, Final residual = 2.75588e-06, No Iterations 5
smoothSolver:  Solving for k, Initial residual = 0.00192827, Final residual = 4.02698e-06, No Iterations 5
ExecutionTime = 3.59 s  ClockTime = 4 s

Time = 0.45

Courant Number mean: 0.0233979 max: 0.0280716
smoothSolver:  Solving for Ux, Initial residual = 0.000546407, Final residual = 5.10364e-06, No Iterations 4
smoothSolver:  Solving for Uy, Initial residual = 0.0323896, Final residual = 7.16796e-06, No Iterations 7
smoothSolver:  Solving for Uz, Initial residual = 0.046895, Final residual = 8.1157e-06, No Iterations 6
Pressure gradient source: uncorrected Ubar = 0.389999, pressure gradient = 0.00307868
GAMG:  Solving for p, Initial residual = 0.0350907, Final residual = 0.00346555, No Iterations 20
time step continuity errors : sum local = 2.38443e-10, global = -3.1713e-20, cumulative = 1.02307e-18
Pressure gradient source: uncorrected Ubar = 0.389999, pressure gradient = 0.00306513
GAMG:  Solving for p, Initial residual = 0.0167167, Final residual = 9.99024e-07, No Iterations 343
time step continuity errors : sum local = 6.24771e-14, global = 9.30373e-20, cumulative = 1.11611e-18
Pressure gradient source: uncorrected Ubar = 0.389999, pressure gradient = 0.00306218
smoothSolver:  Solving for epsilon, Initial residual = 0.00218094, Final residual = 3.02999e-06, No Iterations 5
smoothSolver:  Solving for k, Initial residual = 0.00173184, Final residual = 5.32428e-06, No Iterations 5
ExecutionTime = 4.02 s  ClockTime = 4 s

Time = 0.5

Courant Number mean: 0.0233981 max: 0.0280707
smoothSolver:  Solving for Ux, Initial residual = 0.000516675, Final residual = 5.28085e-06, No Iterations 4
smoothSolver:  Solving for Uy, Initial residual = 0.0355718, Final residual = 9.13693e-06, No Iterations 7
smoothSolver:  Solving for Uz, Initial residual = 0.0446103, Final residual = 8.73028e-06, No Iterations 6
Pressure gradient source: uncorrected Ubar = 0.389999, pressure gradient = 0.00309426
GAMG:  Solving for p, Initial residual = 0.0332111, Final residual = 0.00317318, No Iterations 8
time step continuity errors : sum local = 1.9646e-10, global = 1.4994e-19, cumulative = 1.26605e-18
Pressure gradient source: uncorrected Ubar = 0.389999, pressure gradient = 0.00308047
GAMG:  Solving for p, Initial residual = 0.0189757, Final residual = 9.9746e-07, No Iterations 344
time step continuity errors : sum local = 5.83149e-14, global = 8.70312e-20, cumulative = 1.35308e-18
Pressure gradient source: uncorrected Ubar = 0.389999, pressure gradient = 0.00307727
smoothSolver:  Solving for epsilon, Initial residual = 0.00200212, Final residual = 3.23739e-06, No Iterations 5
smoothSolver:  Solving for k, Initial residual = 0.00163475, Final residual = 6.5844e-06, No Iterations 5
ExecutionTime = 4.43 s  ClockTime = 4 s

Time = 0.55

Courant Number mean: 0.0233983 max: 0.0280698
smoothSolver:  Solving for Ux, Initial residual = 0.000487863, Final residual = 5.40966e-06, No Iterations 4
smoothSolver:  Solving for Uy, Initial residual = 0.0326462, Final residual = 8.34094e-06, No Iterations 7
smoothSolver:  Solving for Uz, Initial residual = 0.0407509, Final residual = 7.11956e-06, No Iterations 6
Pressure gradient source: uncorrected Ubar = 0.389999, pressure gradient = 0.00310799
GAMG:  Solving for p, Initial residual = 0.0378016, Final residual = 0.00364837, No Iterations 7
time step continuity errors : sum local = 2.09641e-10, global = 1.71907e-19, cumulative = 1.52499e-18
Pressure gradient source: uncorrected Ubar = 0.389999, pressure gradient = 0.00309407
GAMG:  Solving for p, Initial residual = 0.0197872, Final residual = 9.69861e-07, No Iterations 325
time step continuity errors : sum local = 5.15594e-14, global = -1.41701e-20, cumulative = 1.51082e-18
Pressure gradient source: uncorrected Ubar = 0.389999, pressure gradient = 0.00309066
smoothSolver:  Solving for epsilon, Initial residual = 0.00184643, Final residual = 3.37872e-06, No Iterations 5
smoothSolver:  Solving for k, Initial residual = 0.00160581, Final residual = 7.65169e-06, No Iterations 5
ExecutionTime = 4.83 s  ClockTime = 5 s

Time = 0.6

Courant Number mean: 0.0233985 max: 0.0280689
smoothSolver:  Solving for Ux, Initial residual = 0.000459496, Final residual = 5.47735e-06, No Iterations 4
smoothSolver:  Solving for Uy, Initial residual = 0.034276, Final residual = 9.04298e-06, No Iterations 7
smoothSolver:  Solving for Uz, Initial residual = 0.0375478, Final residual = 7.54154e-06, No Iterations 6
Pressure gradient source: uncorrected Ubar = 0.389999, pressure gradient = 0.00312017
GAMG:  Solving for p, Initial residual = 0.0379141, Final residual = 0.0037105, No Iterations 14
time step continuity errors : sum local = 1.90647e-10, global = 1.81295e-19, cumulative = 1.69211e-18
Pressure gradient source: uncorrected Ubar = 0.389999, pressure gradient = 0.00310619
[hyd37:105283] 2 more processes have sent help message help-mpi-btl-base.txt / btl:no-nics
[hyd37:105283] Set MCA parameter "orte_base_help_aggregate" to 0 to see all help / error messages
GAMG:  Solving for p, Initial residual = 0.0226636, Final residual = 9.73916e-07, No Iterations 358
time step continuity errors : sum local = 4.55455e-14, global = 2.09467e-19, cumulative = 1.90158e-18
Pressure gradient source: uncorrected Ubar = 0.39, pressure gradient = 0.00310263
smoothSolver:  Solving for epsilon, Initial residual = 0.00170981, Final residual = 3.46616e-06, No Iterations 5
smoothSolver:  Solving for k, Initial residual = 0.00159373, Final residual = 8.48926e-06, No Iterations 5
ExecutionTime = 5.27 s  ClockTime = 5 s

Time = 0.65

Courant Number mean: 0.0233987 max: 0.0280681
smoothSolver:  Solving for Ux, Initial residual = 0.000433612, Final residual = 5.49867e-06, No Iterations 4
smoothSolver:  Solving for Uy, Initial residual = 0.0394814, Final residual = 4.26052e-06, No Iterations 8
smoothSolver:  Solving for Uz, Initial residual = 0.0361678, Final residual = 9.03813e-06, No Iterations 6
Pressure gradient source: uncorrected Ubar = 0.389999, pressure gradient = 0.00313104
GAMG:  Solving for p, Initial residual = 0.0414796, Final residual = 0.00405341, No Iterations 9
time step continuity errors : sum local = 1.86453e-10, global = 1.30428e-19, cumulative = 2.03201e-18
Pressure gradient source: uncorrected Ubar = 0.389999, pressure gradient = 0.00311705
GAMG:  Solving for p, Initial residual = 0.02668, Final residual = 9.67107e-07, No Iterations 345
time step continuity errors : sum local = 4.0549e-14, global = 1.78648e-19, cumulative = 2.21066e-18
Pressure gradient source: uncorrected Ubar = 0.39, pressure gradient = 0.00311337
smoothSolver:  Solving for epsilon, Initial residual = 0.00159158, Final residual = 3.50645e-06, No Iterations 5
smoothSolver:  Solving for k, Initial residual = 0.00159123, Final residual = 9.1396e-06, No Iterations 5
ExecutionTime = 5.69 s  ClockTime = 6 s

Time = 0.7

Courant Number mean: 0.0233988 max: 0.0280672
smoothSolver:  Solving for Ux, Initial residual = 0.000410895, Final residual = 5.47738e-06, No Iterations 4
smoothSolver:  Solving for Uy, Initial residual = 0.0405694, Final residual = 4.25363e-06, No Iterations 8
smoothSolver:  Solving for Uz, Initial residual = 0.0359623, Final residual = 8.73306e-06, No Iterations 6
Pressure gradient source: uncorrected Ubar = 0.389999, pressure gradient = 0.00314072
GAMG:  Solving for p, Initial residual = 0.0444409, Final residual = 0.00440519, No Iterations 18
time step continuity errors : sum local = 1.78381e-10, global = 1.76094e-19, cumulative = 2.38675e-18
Pressure gradient source: uncorrected Ubar = 0.389999, pressure gradient = 0.0031268
GAMG:  Solving for p, Initial residual = 0.0299375, Final residual = 9.8935e-07, No Iterations 369
time step continuity errors : sum local = 3.7107e-14, global = -1.02249e-20, cumulative = 2.37653e-18
Pressure gradient source: uncorrected Ubar = 0.39, pressure gradient = 0.00312302
smoothSolver:  Solving for epsilon, Initial residual = 0.00148892, Final residual = 3.4991e-06, No Iterations 5
smoothSolver:  Solving for k, Initial residual = 0.00159637, Final residual = 9.63094e-06, No Iterations 5
ExecutionTime = 6.15 s  ClockTime = 6 s

Time = 0.75

Courant Number mean: 0.0233989 max: 0.0280664
smoothSolver:  Solving for Ux, Initial residual = 0.000389511, Final residual = 5.43697e-06, No Iterations 4
smoothSolver:  Solving for Uy, Initial residual = 0.0403532, Final residual = 4.15401e-06, No Iterations 8
smoothSolver:  Solving for Uz, Initial residual = 0.0370347, Final residual = 4.09964e-06, No Iterations 7
Pressure gradient source: uncorrected Ubar = 0.389999, pressure gradient = 0.00314938
GAMG:  Solving for p, Initial residual = 0.0526598, Final residual = 0.00431871, No Iterations 5
time step continuity errors : sum local = 1.58724e-10, global = 3.04701e-20, cumulative = 2.407e-18
Pressure gradient source: uncorrected Ubar = 0.39, pressure gradient = 0.00313557
GAMG:  Solving for p, Initial residual = 0.02946, Final residual = 9.85409e-07, No Iterations 362
time step continuity errors : sum local = 3.46909e-14, global = 8.65574e-20, cumulative = 2.49355e-18
Pressure gradient source: uncorrected Ubar = 0.39, pressure gradient = 0.00313172
smoothSolver:  Solving for epsilon, Initial residual = 0.00139841, Final residual = 3.45677e-06, No Iterations 5
smoothSolver:  Solving for k, Initial residual = 0.00159978, Final residual = 9.97416e-06, No Iterations 5
ExecutionTime = 6.58 s  ClockTime = 7 s

Time = 0.8

Courant Number mean: 0.0233991 max: 0.0280655
smoothSolver:  Solving for Ux, Initial residual = 0.000370343, Final residual = 5.40747e-06, No Iterations 4
smoothSolver:  Solving for Uy, Initial residual = 0.0404747, Final residual = 4.38281e-06, No Iterations 8
smoothSolver:  Solving for Uz, Initial residual = 0.0373624, Final residual = 8.75214e-06, No Iterations 6
Pressure gradient source: uncorrected Ubar = 0.389999, pressure gradient = 0.00315714
GAMG:  Solving for p, Initial residual = 0.048354, Final residual = 0.00403233, No Iterations 5
time step continuity errors : sum local = 1.35125e-10, global = 8.20605e-20, cumulative = 2.57561e-18
Pressure gradient source: uncorrected Ubar = 0.39, pressure gradient = 0.00314346
GAMG:  Solving for p, Initial residual = 0.0273525, Final residual = 9.98714e-07, No Iterations 349
time step continuity errors : sum local = 3.21213e-14, global = 1.32446e-19, cumulative = 2.70806e-18
Pressure gradient source: uncorrected Ubar = 0.39, pressure gradient = 0.00313957
smoothSolver:  Solving for epsilon, Initial residual = 0.00131521, Final residual = 3.38924e-06, No Iterations 5
smoothSolver:  Solving for k, Initial residual = 0.00160539, Final residual = 3.89318e-06, No Iterations 6
ExecutionTime = 7 s  ClockTime = 7 s

Time = 0.85

Courant Number mean: 0.0233992 max: 0.0280647
smoothSolver:  Solving for Ux, Initial residual = 0.000353856, Final residual = 5.37301e-06, No Iterations 4
smoothSolver:  Solving for Uy, Initial residual = 0.0418442, Final residual = 4.506e-06, No Iterations 8
smoothSolver:  Solving for Uz, Initial residual = 0.0367627, Final residual = 8.19787e-06, No Iterations 6
Pressure gradient source: uncorrected Ubar = 0.389999, pressure gradient = 0.00316411
GAMG:  Solving for p, Initial residual = 0.0473443, Final residual = 0.00458193, No Iterations 15
time step continuity errors : sum local = 1.40965e-10, global = 1.77032e-19, cumulative = 2.88509e-18
Pressure gradient source: uncorrected Ubar = 0.39, pressure gradient = 0.00315057
GAMG:  Solving for p, Initial residual = 0.0306181, Final residual = 9.69912e-07, No Iterations 328
time step continuity errors : sum local = 2.71265e-14, global = 1.10917e-19, cumulative = 2.99601e-18
Pressure gradient source: uncorrected Ubar = 0.39, pressure gradient = 0.00314664
smoothSolver:  Solving for epsilon, Initial residual = 0.00123917, Final residual = 3.30056e-06, No Iterations 5
smoothSolver:  Solving for k, Initial residual = 0.00160499, Final residual = 3.9582e-06, No Iterations 6
ExecutionTime = 7.41 s  ClockTime = 7 s

Time = 0.9

Courant Number mean: 0.0233992 max: 0.0280638
smoothSolver:  Solving for Ux, Initial residual = 0.000341962, Final residual = 5.31846e-06, No Iterations 4
smoothSolver:  Solving for Uy, Initial residual = 0.0381749, Final residual = 9.9719e-06, No Iterations 7
smoothSolver:  Solving for Uz, Initial residual = 0.0339322, Final residual = 8.52872e-06, No Iterations 6
Pressure gradient source: uncorrected Ubar = 0.389999, pressure gradient = 0.00317033
GAMG:  Solving for p, Initial residual = 0.0501514, Final residual = 0.0048957, No Iterations 7
time step continuity errors : sum local = 1.3171e-10, global = 1.33175e-19, cumulative = 3.12918e-18
Pressure gradient source: uncorrected Ubar = 0.39, pressure gradient = 0.00315698
GAMG:  Solving for p, Initial residual = 0.0316507, Final residual = 9.76623e-07, No Iterations 344
time step continuity errors : sum local = 2.51446e-14, global = 2.21275e-19, cumulative = 3.35046e-18
Pressure gradient source: uncorrected Ubar = 0.39, pressure gradient = 0.00315304
smoothSolver:  Solving for epsilon, Initial residual = 0.00116524, Final residual = 3.1966e-06, No Iterations 5
smoothSolver:  Solving for k, Initial residual = 0.00159189, Final residual = 3.97617e-06, No Iterations 6
ExecutionTime = 7.82 s  ClockTime = 8 s

Time = 0.95

Courant Number mean: 0.0233993 max: 0.0280629
smoothSolver:  Solving for Ux, Initial residual = 0.000331142, Final residual = 5.25335e-06, No Iterations 4
smoothSolver:  Solving for Uy, Initial residual = 0.0364587, Final residual = 9.31317e-06, No Iterations 7
smoothSolver:  Solving for Uz, Initial residual = 0.0317412, Final residual = 7.72918e-06, No Iterations 6
Pressure gradient source: uncorrected Ubar = 0.389999, pressure gradient = 0.00317596
GAMG:  Solving for p, Initial residual = 0.0510172, Final residual = 0.00495101, No Iterations 18
time step continuity errors : sum local = 1.19947e-10, global = 1.69338e-19, cumulative = 3.5198e-18
Pressure gradient source: uncorrected Ubar = 0.39, pressure gradient = 0.00316279
GAMG:  Solving for p, Initial residual = 0.0337793, Final residual = 9.94937e-07, No Iterations 343
time step continuity errors : sum local = 2.32198e-14, global = 1.81057e-19, cumulative = 3.70086e-18
Pressure gradient source: uncorrected Ubar = 0.39, pressure gradient = 0.00315885
smoothSolver:  Solving for epsilon, Initial residual = 0.00109406, Final residual = 3.08077e-06, No Iterations 5
smoothSolver:  Solving for k, Initial residual = 0.00156643, Final residual = 3.95952e-06, No Iterations 6
ExecutionTime = 8.25 s  ClockTime = 8 s

Time = 1

Courant Number mean: 0.0233994 max: 0.028062
smoothSolver:  Solving for Ux, Initial residual = 0.000321545, Final residual = 5.19237e-06, No Iterations 4
smoothSolver:  Solving for Uy, Initial residual = 0.0349582, Final residual = 9.36659e-06, No Iterations 7
smoothSolver:  Solving for Uz, Initial residual = 0.0294604, Final residual = 8.07259e-06, No Iterations 6
Pressure gradient source: uncorrected Ubar = 0.389999, pressure gradient = 0.00318103
GAMG:  Solving for p, Initial residual = 0.052593, Final residual = 0.00496175, No Iterations 12
time step continuity errors : sum local = 1.09821e-10, global = 8.54557e-21, cumulative = 3.7094e-18
Pressure gradient source: uncorrected Ubar = 0.39, pressure gradient = 0.00316807
GAMG:  Solving for p, Initial residual = 0.0361554, Final residual = 9.84921e-07, No Iterations 342
time step continuity errors : sum local = 2.16308e-14, global = 4.56961e-20, cumulative = 3.7551e-18
Pressure gradient source: uncorrected Ubar = 0.39, pressure gradient = 0.00316414
smoothSolver:  Solving for epsilon, Initial residual = 0.00102805, Final residual = 9.68899e-06, No Iterations 4
smoothSolver:  Solving for k, Initial residual = 0.00153053, Final residual = 3.91783e-06, No Iterations 6
ExecutionTime = 8.67 s  ClockTime = 9 s

Time = 1.05

Courant Number mean: 0.0233995 max: 0.0280611
smoothSolver:  Solving for Ux, Initial residual = 0.00031402, Final residual = 5.13597e-06, No Iterations 4
smoothSolver:  Solving for Uy, Initial residual = 0.0339586, Final residual = 9.25495e-06, No Iterations 7
smoothSolver:  Solving for Uz, Initial residual = 0.0274827, Final residual = 9.01358e-06, No Iterations 6
Pressure gradient source: uncorrected Ubar = 0.389999, pressure gradient = 0.00318564
GAMG:  Solving for p, Initial residual = 0.0528772, Final residual = 0.00516015, No Iterations 20
time step continuity errors : sum local = 1.07767e-10, global = 1.95034e-19, cumulative = 3.95013e-18
Pressure gradient source: uncorrected Ubar = 0.39, pressure gradient = 0.00317289
GAMG:  Solving for p, Initial residual = 0.0387184, Final residual = 9.90271e-07, No Iterations 347
time step continuity errors : sum local = 2.06279e-14, global = 2.09516e-20, cumulative = 3.97108e-18
Pressure gradient source: uncorrected Ubar = 0.39, pressure gradient = 0.00316897
smoothSolver:  Solving for epsilon, Initial residual = 0.000970527, Final residual = 9.23124e-06, No Iterations 4
smoothSolver:  Solving for k, Initial residual = 0.00148612, Final residual = 9.811e-06, No Iterations 5
ExecutionTime = 9.1 s  ClockTime = 9 s

Time = 1.1

Courant Number mean: 0.0233995 max: 0.0280602
smoothSolver:  Solving for Ux, Initial residual = 0.000308437, Final residual = 5.07057e-06, No Iterations 4
smoothSolver:  Solving for Uy, Initial residual = 0.0294912, Final residual = 8.0184e-06, No Iterations 7
smoothSolver:  Solving for Uz, Initial residual = 0.0249758, Final residual = 8.21277e-06, No Iterations 6
Pressure gradient source: uncorrected Ubar = 0.389999, pressure gradient = 0.00318984
GAMG:  Solving for p, Initial residual = 0.0503052, Final residual = 0.00501999, No Iterations 32
time step continuity errors : sum local = 9.90207e-11, global = 2.98024e-20, cumulative = 4.00089e-18
Pressure gradient source: uncorrected Ubar = 0.39, pressure gradient = 0.00317729
GAMG:  Solving for p, Initial residual = 0.0382249, Final residual = 9.88723e-07, No Iterations 349
time step continuity errors : sum local = 1.96141e-14, global = 4.46892e-20, cumulative = 4.04557e-18
Pressure gradient source: uncorrected Ubar = 0.39, pressure gradient = 0.0031734
smoothSolver:  Solving for epsilon, Initial residual = 0.000913229, Final residual = 8.7552e-06, No Iterations 4
smoothSolver:  Solving for k, Initial residual = 0.00143866, Final residual = 9.55774e-06, No Iterations 5
ExecutionTime = 9.55 s  ClockTime = 10 s

Time = 1.15

Courant Number mean: 0.0233996 max: 0.0280593
smoothSolver:  Solving for Ux, Initial residual = 0.000303654, Final residual = 5.00005e-06, No Iterations 4
smoothSolver:  Solving for Uy, Initial residual = 0.0275502, Final residual = 7.55482e-06, No Iterations 7
smoothSolver:  Solving for Uz, Initial residual = 0.0223655, Final residual = 8.45904e-06, No Iterations 6
Pressure gradient source: uncorrected Ubar = 0.389999, pressure gradient = 0.00319368
GAMG:  Solving for p, Initial residual = 0.0523463, Final residual = 0.00513698, No Iterations 34
time step continuity errors : sum local = 9.62175e-11, global = 1.21208e-19, cumulative = 4.16678e-18
Pressure gradient source: uncorrected Ubar = 0.39, pressure gradient = 0.00318134
GAMG:  Solving for p, Initial residual = 0.0396099, Final residual = 9.91067e-07, No Iterations 352
time step continuity errors : sum local = 1.85955e-14, global = 6.69615e-20, cumulative = 4.23374e-18
Pressure gradient source: uncorrected Ubar = 0.39, pressure gradient = 0.00317748
smoothSolver:  Solving for epsilon, Initial residual = 0.000860221, Final residual = 8.28645e-06, No Iterations 4
smoothSolver:  Solving for k, Initial residual = 0.00140158, Final residual = 9.27442e-06, No Iterations 5
ExecutionTime = 9.99 s  ClockTime = 10 s

Time = 1.2

Courant Number mean: 0.0233996 max: 0.0280583
smoothSolver:  Solving for Ux, Initial residual = 0.000299119, Final residual = 4.92707e-06, No Iterations 4
smoothSolver:  Solving for Uy, Initial residual = 0.0236644, Final residual = 6.44722e-06, No Iterations 7
smoothSolver:  Solving for Uz, Initial residual = 0.0214687, Final residual = 8.7396e-06, No Iterations 6
Pressure gradient source: uncorrected Ubar = 0.389999, pressure gradient = 0.00319721
GAMG:  Solving for p, Initial residual = 0.0555405, Final residual = 0.00539846, No Iterations 36
time step continuity errors : sum local = 9.53299e-11, global = 1.64615e-19, cumulative = 4.39836e-18
Pressure gradient source: uncorrected Ubar = 0.39, pressure gradient = 0.00318508
GAMG:  Solving for p, Initial residual = 0.0404318, Final residual = 9.78257e-07, No Iterations 354
time step continuity errors : sum local = 1.75278e-14, global = 5.14035e-20, cumulative = 4.44976e-18
Pressure gradient source: uncorrected Ubar = 0.39, pressure gradient = 0.00318126
smoothSolver:  Solving for epsilon, Initial residual = 0.000809816, Final residual = 7.83095e-06, No Iterations 4
smoothSolver:  Solving for k, Initial residual = 0.00136313, Final residual = 8.97533e-06, No Iterations 5
ExecutionTime = 10.45 s  ClockTime = 10 s

Time = 1.25

Courant Number mean: 0.0233996 max: 0.0280573
smoothSolver:  Solving for Ux, Initial residual = 0.000294639, Final residual = 4.85692e-06, No Iterations 4
smoothSolver:  Solving for Uy, Initial residual = 0.0215674, Final residual = 5.9959e-06, No Iterations 7
smoothSolver:  Solving for Uz, Initial residual = 0.0205847, Final residual = 9.02921e-06, No Iterations 6
Pressure gradient source: uncorrected Ubar = 0.389999, pressure gradient = 0.00320045
GAMG:  Solving for p, Initial residual = 0.0537407, Final residual = 0.00521839, No Iterations 38
time step continuity errors : sum local = 8.82485e-11, global = 1.51112e-19, cumulative = 4.60087e-18
Pressure gradient source: uncorrected Ubar = 0.39, pressure gradient = 0.00318853
GAMG:  Solving for p, Initial residual = 0.0420742, Final residual = 9.98774e-07, No Iterations 358
time step continuity errors : sum local = 1.70808e-14, global = 8.3765e-20, cumulative = 4.68464e-18
Pressure gradient source: uncorrected Ubar = 0.39, pressure gradient = 0.00318475
smoothSolver:  Solving for epsilon, Initial residual = 0.000761502, Final residual = 7.38824e-06, No Iterations 4
smoothSolver:  Solving for k, Initial residual = 0.00132179, Final residual = 8.66978e-06, No Iterations 5
ExecutionTime = 10.9 s  ClockTime = 11 s

Time = 1.3

Courant Number mean: 0.0233997 max: 0.0280564
smoothSolver:  Solving for Ux, Initial residual = 0.000290483, Final residual = 4.78814e-06, No Iterations 4
smoothSolver:  Solving for Uy, Initial residual = 0.0205974, Final residual = 6.17646e-06, No Iterations 7
smoothSolver:  Solving for Uz, Initial residual = 0.0204474, Final residual = 9.07166e-06, No Iterations 6
Pressure gradient source: uncorrected Ubar = 0.389999, pressure gradient = 0.00320346
GAMG:  Solving for p, Initial residual = 0.0499367, Final residual = 0.00489522, No Iterations 37
time step continuity errors : sum local = 7.8713e-11, global = 1.45846e-19, cumulative = 4.83048e-18
Pressure gradient source: uncorrected Ubar = 0.39, pressure gradient = 0.00319174
GAMG:  Solving for p, Initial residual = 0.0423405, Final residual = 9.92549e-07, No Iterations 364
time step continuity errors : sum local = 1.62708e-14, global = 1.16391e-19, cumulative = 4.94688e-18
Pressure gradient source: uncorrected Ubar = 0.39, pressure gradient = 0.00318801
smoothSolver:  Solving for epsilon, Initial residual = 0.000715238, Final residual = 6.96374e-06, No Iterations 4
smoothSolver:  Solving for k, Initial residual = 0.00127894, Final residual = 8.36326e-06, No Iterations 5
ExecutionTime = 11.37 s  ClockTime = 11 s

Time = 1.35

Courant Number mean: 0.0233997 max: 0.0280554
smoothSolver:  Solving for Ux, Initial residual = 0.000287454, Final residual = 4.71667e-06, No Iterations 4
smoothSolver:  Solving for Uy, Initial residual = 0.0170189, Final residual = 5.03944e-06, No Iterations 7
smoothSolver:  Solving for Uz, Initial residual = 0.0209625, Final residual = 9.15705e-06, No Iterations 6
Pressure gradient source: uncorrected Ubar = 0.389999, pressure gradient = 0.00320624
GAMG:  Solving for p, Initial residual = 0.0540847, Final residual = 0.00529948, No Iterations 35
time step continuity errors : sum local = 8.19382e-11, global = 5.7691e-20, cumulative = 5.00457e-18
Pressure gradient source: uncorrected Ubar = 0.39, pressure gradient = 0.00319473
GAMG:  Solving for p, Initial residual = 0.0436731, Final residual = 9.76812e-07, No Iterations 366
time step continuity errors : sum local = 1.52699e-14, global = 6.46182e-20, cumulative = 5.06918e-18
Pressure gradient source: uncorrected Ubar = 0.39, pressure gradient = 0.00319104
smoothSolver:  Solving for epsilon, Initial residual = 0.000673132, Final residual = 6.55681e-06, No Iterations 4
smoothSolver:  Solving for k, Initial residual = 0.00123839, Final residual = 8.05824e-06, No Iterations 5
ExecutionTime = 11.84 s  ClockTime = 12 s

Time = 1.4

Courant Number mean: 0.0233997 max: 0.0280544
smoothSolver:  Solving for Ux, Initial residual = 0.000284815, Final residual = 4.64286e-06, No Iterations 4
smoothSolver:  Solving for Uy, Initial residual = 0.0169087, Final residual = 5.11419e-06, No Iterations 7
smoothSolver:  Solving for Uz, Initial residual = 0.0218028, Final residual = 9.31954e-06, No Iterations 6
Pressure gradient source: uncorrected Ubar = 0.389999, pressure gradient = 0.00320883
GAMG:  Solving for p, Initial residual = 0.0509218, Final residual = 0.00498734, No Iterations 38
time step continuity errors : sum local = 7.33119e-11, global = 1.44751e-19, cumulative = 5.21394e-18
Pressure gradient source: uncorrected Ubar = 0.39, pressure gradient = 0.00319752
GAMG:  Solving for p, Initial residual = 0.0441554, Final residual = 9.90188e-07, No Iterations 369
time step continuity errors : sum local = 1.4935e-14, global = 7.46307e-20, cumulative = 5.28857e-18
Pressure gradient source: uncorrected Ubar = 0.39, pressure gradient = 0.00319389
smoothSolver:  Solving for epsilon, Initial residual = 0.000634227, Final residual = 6.16853e-06, No Iterations 4
smoothSolver:  Solving for k, Initial residual = 0.0011985, Final residual = 7.75842e-06, No Iterations 5
ExecutionTime = 12.31 s  ClockTime = 12 s

Time = 1.45

Courant Number mean: 0.0233998 max: 0.0280534
smoothSolver:  Solving for Ux, Initial residual = 0.000282256, Final residual = 4.56741e-06, No Iterations 4
smoothSolver:  Solving for Uy, Initial residual = 0.0150339, Final residual = 4.43714e-06, No Iterations 7
smoothSolver:  Solving for Uz, Initial residual = 0.0220035, Final residual = 9.78872e-06, No Iterations 6
Pressure gradient source: uncorrected Ubar = 0.389999, pressure gradient = 0.00321124
GAMG:  Solving for p, Initial residual = 0.0561058, Final residual = 0.00548532, No Iterations 38
time step continuity errors : sum local = 7.77719e-11, global = 2.85573e-20, cumulative = 5.31712e-18
Pressure gradient source: uncorrected Ubar = 0.39, pressure gradient = 0.00320014
GAMG:  Solving for p, Initial residual = 0.0442543, Final residual = 9.8167e-07, No Iterations 368
time step continuity errors : sum local = 1.44862e-14, global = 4.89844e-20, cumulative = 5.36611e-18
Pressure gradient source: uncorrected Ubar = 0.39, pressure gradient = 0.00319656
smoothSolver:  Solving for epsilon, Initial residual = 0.000598633, Final residual = 5.80159e-06, No Iterations 4
smoothSolver:  Solving for k, Initial residual = 0.00115927, Final residual = 7.46305e-06, No Iterations 5
ExecutionTime = 12.78 s  ClockTime = 13 s

Time = 1.5

Courant Number mean: 0.0233998 max: 0.0280523
smoothSolver:  Solving for Ux, Initial residual = 0.000279714, Final residual = 4.49156e-06, No Iterations 4
smoothSolver:  Solving for Uy, Initial residual = 0.0141294, Final residual = 4.26663e-06, No Iterations 7
smoothSolver:  Solving for Uz, Initial residual = 0.0221918, Final residual = 9.87037e-06, No Iterations 6
Pressure gradient source: uncorrected Ubar = 0.389999, pressure gradient = 0.00321351
GAMG:  Solving for p, Initial residual = 0.0511025, Final residual = 0.00510066, No Iterations 38
time step continuity errors : sum local = 7.07153e-11, global = 6.93326e-20, cumulative = 5.43544e-18
Pressure gradient source: uncorrected Ubar = 0.39, pressure gradient = 0.00320261
GAMG:  Solving for p, Initial residual = 0.0448467, Final residual = 9.90287e-07, No Iterations 371
time step continuity errors : sum local = 1.40668e-14, global = 1.15157e-19, cumulative = 5.5506e-18
Pressure gradient source: uncorrected Ubar = 0.39, pressure gradient = 0.00319908
smoothSolver:  Solving for epsilon, Initial residual = 0.000565483, Final residual = 5.4553e-06, No Iterations 4
smoothSolver:  Solving for k, Initial residual = 0.0011269, Final residual = 7.18001e-06, No Iterations 5
ExecutionTime = 13.25 s  ClockTime = 13 s

Time = 1.55

Courant Number mean: 0.0233998 max: 0.0280513
smoothSolver:  Solving for Ux, Initial residual = 0.000277068, Final residual = 4.4166e-06, No Iterations 4
smoothSolver:  Solving for Uy, Initial residual = 0.0135601, Final residual = 9.72118e-06, No Iterations 6
smoothSolver:  Solving for Uz, Initial residual = 0.0222945, Final residual = 4.05363e-06, No Iterations 7
Pressure gradient source: uncorrected Ubar = 0.389999, pressure gradient = 0.00321564
GAMG:  Solving for p, Initial residual = 0.0541495, Final residual = 0.00538367, No Iterations 39
time step continuity errors : sum local = 7.15244e-11, global = 2.01168e-19, cumulative = 5.75177e-18
Pressure gradient source: uncorrected Ubar = 0.39, pressure gradient = 0.00320494
GAMG:  Solving for p, Initial residual = 0.0456407, Final residual = 9.97814e-07, No Iterations 372
time step continuity errors : sum local = 1.37007e-14, global = 1.67914e-19, cumulative = 5.91968e-18
Pressure gradient source: uncorrected Ubar = 0.39, pressure gradient = 0.00320146
smoothSolver:  Solving for epsilon, Initial residual = 0.000534117, Final residual = 5.12827e-06, No Iterations 4
smoothSolver:  Solving for k, Initial residual = 0.00109719, Final residual = 6.91028e-06, No Iterations 5
ExecutionTime = 13.72 s  ClockTime = 14 s

Time = 1.6

Courant Number mean: 0.0233998 max: 0.0280502
smoothSolver:  Solving for Ux, Initial residual = 0.00027486, Final residual = 4.34292e-06, No Iterations 4
smoothSolver:  Solving for Uy, Initial residual = 0.0125132, Final residual = 9.44373e-06, No Iterations 6
smoothSolver:  Solving for Uz, Initial residual = 0.0226265, Final residual = 4.00793e-06, No Iterations 7
Pressure gradient source: uncorrected Ubar = 0.389999, pressure gradient = 0.00321766
GAMG:  Solving for p, Initial residual = 0.0495345, Final residual = 0.00484109, No Iterations 43
time step continuity errors : sum local = 6.22647e-11, global = 8.78946e-20, cumulative = 6.00757e-18
Pressure gradient source: uncorrected Ubar = 0.39, pressure gradient = 0.00320714
GAMG:  Solving for p, Initial residual = 0.0460586, Final residual = 9.88523e-07, No Iterations 376
time step continuity errors : sum local = 1.31898e-14, global = 5.39882e-20, cumulative = 6.06156e-18
Pressure gradient source: uncorrected Ubar = 0.39, pressure gradient = 0.00320373
smoothSolver:  Solving for epsilon, Initial residual = 0.000504588, Final residual = 4.81909e-06, No Iterations 4
smoothSolver:  Solving for k, Initial residual = 0.00106904, Final residual = 6.65409e-06, No Iterations 5
ExecutionTime = 14.21 s  ClockTime = 14 s

Time = 1.65

Courant Number mean: 0.0233999 max: 0.0280492
smoothSolver:  Solving for Ux, Initial residual = 0.0002731, Final residual = 4.26739e-06, No Iterations 4
smoothSolver:  Solving for Uy, Initial residual = 0.0114333, Final residual = 8.31523e-06, No Iterations 6
smoothSolver:  Solving for Uz, Initial residual = 0.0227329, Final residual = 4.20973e-06, No Iterations 7
Pressure gradient source: uncorrected Ubar = 0.389999, pressure gradient = 0.00321956
GAMG:  Solving for p, Initial residual = 0.0534388, Final residual = 0.00531039, No Iterations 43
time step continuity errors : sum local = 6.60802e-11, global = 1.36022e-19, cumulative = 6.19759e-18
Pressure gradient source: uncorrected Ubar = 0.39, pressure gradient = 0.00320923
GAMG:  Solving for p, Initial residual = 0.0478623, Final residual = 9.91369e-07, No Iterations 376
time step continuity errors : sum local = 1.2922e-14, global = 5.52354e-20, cumulative = 6.25282e-18
Pressure gradient source: uncorrected Ubar = 0.39, pressure gradient = 0.00320587
smoothSolver:  Solving for epsilon, Initial residual = 0.00047828, Final residual = 4.53219e-06, No Iterations 4
smoothSolver:  Solving for k, Initial residual = 0.00104179, Final residual = 6.41353e-06, No Iterations 5
ExecutionTime = 14.69 s  ClockTime = 15 s

Time = 1.7

Courant Number mean: 0.0233999 max: 0.0280481
smoothSolver:  Solving for Ux, Initial residual = 0.000271486, Final residual = 9.95822e-06, No Iterations 3
smoothSolver:  Solving for Uy, Initial residual = 0.0103288, Final residual = 7.78021e-06, No Iterations 6
smoothSolver:  Solving for Uz, Initial residual = 0.0229836, Final residual = 4.20148e-06, No Iterations 7
Pressure gradient source: uncorrected Ubar = 0.389998, pressure gradient = 0.00324631
GAMG:  Solving for p, Initial residual = 0.0869635, Final residual = 0.00866826, No Iterations 70
time step continuity errors : sum local = 1.09972e-10, global = 2.25422e-19, cumulative = 6.47824e-18
Pressure gradient source: uncorrected Ubar = 0.389999, pressure gradient = 0.00322218
GAMG:  Solving for p, Initial residual = 0.0728698, Final residual = 9.85375e-07, No Iterations 393
time step continuity errors : sum local = 1.5489e-14, global = 4.14456e-20, cumulative = 6.51969e-18
Pressure gradient source: uncorrected Ubar = 0.39, pressure gradient = 0.00321436
smoothSolver:  Solving for epsilon, Initial residual = 0.000455192, Final residual = 4.24792e-06, No Iterations 4
smoothSolver:  Solving for k, Initial residual = 0.00101335, Final residual = 6.15751e-06, No Iterations 5
ExecutionTime = 15.22 s  ClockTime = 15 s

Time = 1.75

Courant Number mean: 0.0233999 max: 0.028047
smoothSolver:  Solving for Ux, Initial residual = 0.000268684, Final residual = 9.81191e-06, No Iterations 3
smoothSolver:  Solving for Uy, Initial residual = 0.00995399, Final residual = 8.2752e-06, No Iterations 6
smoothSolver:  Solving for Uz, Initial residual = 0.0321645, Final residual = 3.93193e-06, No Iterations 7
Pressure gradient source: uncorrected Ubar = 0.389999, pressure gradient = 0.00324573
GAMG:  Solving for p, Initial residual = 0.070718, Final residual = 0.00703459, No Iterations 50
time step continuity errors : sum local = 9.67007e-11, global = 1.61459e-19, cumulative = 6.68115e-18
Pressure gradient source: uncorrected Ubar = 0.39, pressure gradient = 0.00322357
GAMG:  Solving for p, Initial residual = 0.0657333, Final residual = 9.70396e-07, No Iterations 394
time step continuity errors : sum local = 1.45289e-14, global = 1.33925e-19, cumulative = 6.81507e-18
Pressure gradient source: uncorrected Ubar = 0.39, pressure gradient = 0.00321603
smoothSolver:  Solving for epsilon, Initial residual = 0.000436435, Final residual = 3.98325e-06, No Iterations 4
smoothSolver:  Solving for k, Initial residual = 0.000985572, Final residual = 5.9263e-06, No Iterations 5
ExecutionTime = 15.73 s  ClockTime = 16 s

Time = 1.8

Courant Number mean: 0.0233999 max: 0.0280459
smoothSolver:  Solving for Ux, Initial residual = 0.000267002, Final residual = 9.64427e-06, No Iterations 3
smoothSolver:  Solving for Uy, Initial residual = 0.0100963, Final residual = 8.6258e-06, No Iterations 6
smoothSolver:  Solving for Uz, Initial residual = 0.0303736, Final residual = 4.06543e-06, No Iterations 7
Pressure gradient source: uncorrected Ubar = 0.389999, pressure gradient = 0.003247
GAMG:  Solving for p, Initial residual = 0.0764912, Final residual = 0.00752742, No Iterations 53
time step continuity errors : sum local = 9.93943e-11, global = 6.56459e-20, cumulative = 6.88072e-18
Pressure gradient source: uncorrected Ubar = 0.39, pressure gradient = 0.00322516
GAMG:  Solving for p, Initial residual = 0.0670851, Final residual = 9.85035e-07, No Iterations 395
time step continuity errors : sum local = 1.44918e-14, global = 1.55366e-19, cumulative = 7.03608e-18
Pressure gradient source: uncorrected Ubar = 0.39, pressure gradient = 0.00321773
smoothSolver:  Solving for epsilon, Initial residual = 0.000419343, Final residual = 3.74385e-06, No Iterations 4
smoothSolver:  Solving for k, Initial residual = 0.000960366, Final residual = 5.70623e-06, No Iterations 5
ExecutionTime = 16.25 s  ClockTime = 16 s

Time = 1.85

Courant Number mean: 0.0233999 max: 0.0280448
smoothSolver:  Solving for Ux, Initial residual = 0.000265192, Final residual = 9.47684e-06, No Iterations 3
smoothSolver:  Solving for Uy, Initial residual = 0.00844663, Final residual = 7.21225e-06, No Iterations 6
smoothSolver:  Solving for Uz, Initial residual = 0.0300059, Final residual = 4.06611e-06, No Iterations 7
Pressure gradient source: uncorrected Ubar = 0.389999, pressure gradient = 0.00324817
GAMG:  Solving for p, Initial residual = 0.0743953, Final residual = 0.00728343, No Iterations 55
time step continuity errors : sum local = 9.46612e-11, global = 1.62181e-19, cumulative = 7.19826e-18
Pressure gradient source: uncorrected Ubar = 0.39, pressure gradient = 0.00322666
GAMG:  Solving for p, Initial residual = 0.0676144, Final residual = 9.79682e-07, No Iterations 396
time step continuity errors : sum local = 1.43172e-14, global = 1.32171e-19, cumulative = 7.33044e-18
Pressure gradient source: uncorrected Ubar = 0.39, pressure gradient = 0.00321936
smoothSolver:  Solving for epsilon, Initial residual = 0.000403462, Final residual = 3.52111e-06, No Iterations 4
smoothSolver:  Solving for k, Initial residual = 0.000941463, Final residual = 5.5108e-06, No Iterations 5
ExecutionTime = 16.76 s  ClockTime = 17 s

Time = 1.9

Courant Number mean: 0.0233999 max: 0.0280437
smoothSolver:  Solving for Ux, Initial residual = 0.000263263, Final residual = 9.32068e-06, No Iterations 3
smoothSolver:  Solving for Uy, Initial residual = 0.0077569, Final residual = 6.41874e-06, No Iterations 6
smoothSolver:  Solving for Uz, Initial residual = 0.0299908, Final residual = 4.15607e-06, No Iterations 7
Pressure gradient source: uncorrected Ubar = 0.389999, pressure gradient = 0.00324932
GAMG:  Solving for p, Initial residual = 0.0685247, Final residual = 0.00673032, No Iterations 54
time step continuity errors : sum local = 8.58045e-11, global = 1.32617e-19, cumulative = 7.46305e-18
Pressure gradient source: uncorrected Ubar = 0.39, pressure gradient = 0.00322813
GAMG:  Solving for p, Initial residual = 0.0661092, Final residual = 9.90139e-07, No Iterations 398
time step continuity errors : sum local = 1.36704e-14, global = 1.55055e-19, cumulative = 7.61811e-18
Pressure gradient source: uncorrected Ubar = 0.39, pressure gradient = 0.00322094
smoothSolver:  Solving for epsilon, Initial residual = 0.000389005, Final residual = 3.31322e-06, No Iterations 4
smoothSolver:  Solving for k, Initial residual = 0.000925334, Final residual = 5.32582e-06, No Iterations 5
ExecutionTime = 17.27 s  ClockTime = 17 s

Time = 1.95

Courant Number mean: 0.0234 max: 0.0280426
smoothSolver:  Solving for Ux, Initial residual = 0.000261298, Final residual = 9.15533e-06, No Iterations 3
smoothSolver:  Solving for Uy, Initial residual = 0.00834618, Final residual = 6.32002e-06, No Iterations 6
smoothSolver:  Solving for Uz, Initial residual = 0.0280349, Final residual = 4.57876e-06, No Iterations 7
Pressure gradient source: uncorrected Ubar = 0.389999, pressure gradient = 0.00325034
GAMG:  Solving for p, Initial residual = 0.0788903, Final residual = 0.00779578, No Iterations 56
time step continuity errors : sum local = 9.50733e-11, global = 1.80801e-19, cumulative = 7.79891e-18
Pressure gradient source: uncorrected Ubar = 0.39, pressure gradient = 0.00322949
GAMG:  Solving for p, Initial residual = 0.0703484, Final residual = 9.67277e-07, No Iterations 398
time step continuity errors : sum local = 1.35285e-14, global = 1.52572e-19, cumulative = 7.95148e-18
Pressure gradient source: uncorrected Ubar = 0.39, pressure gradient = 0.00322243
smoothSolver:  Solving for epsilon, Initial residual = 0.000375791, Final residual = 9.57458e-06, No Iterations 3
smoothSolver:  Solving for k, Initial residual = 0.000912127, Final residual = 5.17021e-06, No Iterations 5
ExecutionTime = 17.79 s  ClockTime = 18 s

Time = 2

Courant Number mean: 0.0234 max: 0.0280414
smoothSolver:  Solving for Ux, Initial residual = 0.000259723, Final residual = 9.00141e-06, No Iterations 3
smoothSolver:  Solving for Uy, Initial residual = 0.00771426, Final residual = 5.80206e-06, No Iterations 6
smoothSolver:  Solving for Uz, Initial residual = 0.0284332, Final residual = 4.78861e-06, No Iterations 7
Pressure gradient source: uncorrected Ubar = 0.389999, pressure gradient = 0.00325136
GAMG:  Solving for p, Initial residual = 0.0800367, Final residual = 0.00798315, No Iterations 50
time step continuity errors : sum local = 9.68354e-11, global = 2.2363e-19, cumulative = 8.17511e-18
Pressure gradient source: uncorrected Ubar = 0.39, pressure gradient = 0.00323084
GAMG:  Solving for p, Initial residual = 0.0699249, Final residual = 9.74953e-07, No Iterations 398
time step continuity errors : sum local = 1.30021e-14, global = 2.87466e-19, cumulative = 8.46258e-18
Pressure gradient source: uncorrected Ubar = 0.39, pressure gradient = 0.00322389
smoothSolver:  Solving for epsilon, Initial residual = 0.000365738, Final residual = 9.11991e-06, No Iterations 3
smoothSolver:  Solving for k, Initial residual = 0.000900392, Final residual = 5.03812e-06, No Iterations 5
ExecutionTime = 18.3 s  ClockTime = 18 s

Time = 2.05

Courant Number mean: 0.0234 max: 0.0280403
smoothSolver:  Solving for Ux, Initial residual = 0.000258198, Final residual = 8.84211e-06, No Iterations 3
smoothSolver:  Solving for Uy, Initial residual = 0.00864585, Final residual = 6.28569e-06, No Iterations 6
smoothSolver:  Solving for Uz, Initial residual = 0.0264232, Final residual = 4.65289e-06, No Iterations 7
Pressure gradient source: uncorrected Ubar = 0.389999, pressure gradient = 0.00325229
GAMG:  Solving for p, Initial residual = 0.0831782, Final residual = 0.00831426, No Iterations 53
time step continuity errors : sum local = 9.68562e-11, global = 2.92641e-19, cumulative = 8.75522e-18
Pressure gradient source: uncorrected Ubar = 0.39, pressure gradient = 0.0032321
GAMG:  Solving for p, Initial residual = 0.0712551, Final residual = 9.99098e-07, No Iterations 398
time step continuity errors : sum local = 1.31661e-14, global = 2.754e-19, cumulative = 9.03062e-18
Pressure gradient source: uncorrected Ubar = 0.39, pressure gradient = 0.00322527
smoothSolver:  Solving for epsilon, Initial residual = 0.000356758, Final residual = 8.67183e-06, No Iterations 3
smoothSolver:  Solving for k, Initial residual = 0.000888532, Final residual = 4.90694e-06, No Iterations 5
ExecutionTime = 18.82 s  ClockTime = 19 s

Time = 2.1

Courant Number mean: 0.0234 max: 0.0280391
smoothSolver:  Solving for Ux, Initial residual = 0.000256664, Final residual = 8.68976e-06, No Iterations 3
smoothSolver:  Solving for Uy, Initial residual = 0.00879923, Final residual = 6.0945e-06, No Iterations 6
smoothSolver:  Solving for Uz, Initial residual = 0.0259307, Final residual = 4.45812e-06, No Iterations 7
Pressure gradient source: uncorrected Ubar = 0.389999, pressure gradient = 0.00325321
GAMG:  Solving for p, Initial residual = 0.0794227, Final residual = 0.00783078, No Iterations 53
time step continuity errors : sum local = 8.93251e-11, global = 1.74804e-19, cumulative = 9.20542e-18
Pressure gradient source: uncorrected Ubar = 0.39, pressure gradient = 0.00323333
GAMG:  Solving for p, Initial residual = 0.0718948, Final residual = 9.99207e-07, No Iterations 400
time step continuity errors : sum local = 1.25816e-14, global = 2.62273e-19, cumulative = 9.4677e-18
Pressure gradient source: uncorrected Ubar = 0.39, pressure gradient = 0.00322662
smoothSolver:  Solving for epsilon, Initial residual = 0.000348354, Final residual = 8.23883e-06, No Iterations 3
smoothSolver:  Solving for k, Initial residual = 0.000877329, Final residual = 4.78473e-06, No Iterations 5
ExecutionTime = 19.33 s  ClockTime = 19 s

Time = 2.15

Courant Number mean: 0.0234 max: 0.028038
smoothSolver:  Solving for Ux, Initial residual = 0.000255094, Final residual = 8.53503e-06, No Iterations 3
smoothSolver:  Solving for Uy, Initial residual = 0.00881334, Final residual = 5.93651e-06, No Iterations 6
smoothSolver:  Solving for Uz, Initial residual = 0.0244079, Final residual = 4.42171e-06, No Iterations 7
Pressure gradient source: uncorrected Ubar = 0.389999, pressure gradient = 0.00325405
GAMG:  Solving for p, Initial residual = 0.0843798, Final residual = 0.00827409, No Iterations 55
time step continuity errors : sum local = 9.05548e-11, global = 8.40748e-20, cumulative = 9.55177e-18
Pressure gradient source: uncorrected Ubar = 0.39, pressure gradient = 0.0032345
GAMG:  Solving for p, Initial residual = 0.0727726, Final residual = 9.70936e-07, No Iterations 402
time step continuity errors : sum local = 1.20308e-14, global = 2.0503e-19, cumulative = 9.7568e-18
Pressure gradient source: uncorrected Ubar = 0.39, pressure gradient = 0.00322791
smoothSolver:  Solving for epsilon, Initial residual = 0.000340215, Final residual = 7.81879e-06, No Iterations 3
smoothSolver:  Solving for k, Initial residual = 0.00087054, Final residual = 4.66731e-06, No Iterations 5
ExecutionTime = 19.85 s  ClockTime = 20 s

Time = 2.2

Courant Number mean: 0.0234 max: 0.0280368
smoothSolver:  Solving for Ux, Initial residual = 0.000253463, Final residual = 8.38297e-06, No Iterations 3
smoothSolver:  Solving for Uy, Initial residual = 0.00913714, Final residual = 5.93935e-06, No Iterations 6
smoothSolver:  Solving for Uz, Initial residual = 0.0237831, Final residual = 4.19163e-06, No Iterations 7
Pressure gradient source: uncorrected Ubar = 0.389999, pressure gradient = 0.00325487
GAMG:  Solving for p, Initial residual = 0.083186, Final residual = 0.00825667, No Iterations 55
time step continuity errors : sum local = 8.823e-11, global = 1.9376e-19, cumulative = 9.95056e-18
Pressure gradient source: uncorrected Ubar = 0.39, pressure gradient = 0.00323563
GAMG:  Solving for p, Initial residual = 0.0743497, Final residual = 9.95774e-07, No Iterations 403
time step continuity errors : sum local = 1.19423e-14, global = 2.30848e-19, cumulative = 1.01814e-17
Pressure gradient source: uncorrected Ubar = 0.39, pressure gradient = 0.00322915
smoothSolver:  Solving for epsilon, Initial residual = 0.000332545, Final residual = 7.45807e-06, No Iterations 3
smoothSolver:  Solving for k, Initial residual = 0.000865169, Final residual = 4.55577e-06, No Iterations 5
ExecutionTime = 20.37 s  ClockTime = 20 s

Time = 2.25

Courant Number mean: 0.0234 max: 0.0280356
smoothSolver:  Solving for Ux, Initial residual = 0.000251757, Final residual = 8.23566e-06, No Iterations 3
smoothSolver:  Solving for Uy, Initial residual = 0.00857447, Final residual = 5.40243e-06, No Iterations 6
smoothSolver:  Solving for Uz, Initial residual = 0.0229756, Final residual = 4.12363e-06, No Iterations 7
Pressure gradient source: uncorrected Ubar = 0.389999, pressure gradient = 0.00325566
GAMG:  Solving for p, Initial residual = 0.0830797, Final residual = 0.00812419, No Iterations 56
time step continuity errors : sum local = 8.36095e-11, global = 1.8391e-19, cumulative = 1.03653e-17
Pressure gradient source: uncorrected Ubar = 0.39, pressure gradient = 0.00323672
GAMG:  Solving for p, Initial residual = 0.0750387, Final residual = 9.8539e-07, No Iterations 405
time step continuity errors : sum local = 1.13446e-14, global = 2.06546e-19, cumulative = 1.05719e-17
Pressure gradient source: uncorrected Ubar = 0.39, pressure gradient = 0.00323036
smoothSolver:  Solving for epsilon, Initial residual = 0.000325333, Final residual = 7.0812e-06, No Iterations 3
smoothSolver:  Solving for k, Initial residual = 0.000860938, Final residual = 4.45125e-06, No Iterations 5
ExecutionTime = 20.89 s  ClockTime = 21 s

Time = 2.3

Courant Number mean: 0.0234 max: 0.0280344
smoothSolver:  Solving for Ux, Initial residual = 0.000249991, Final residual = 8.08838e-06, No Iterations 3
smoothSolver:  Solving for Uy, Initial residual = 0.0101784, Final residual = 6.8011e-06, No Iterations 6
smoothSolver:  Solving for Uz, Initial residual = 0.021684, Final residual = 4.29534e-06, No Iterations 7
Pressure gradient source: uncorrected Ubar = 0.389999, pressure gradient = 0.00325641
GAMG:  Solving for p, Initial residual = 0.0864631, Final residual = 0.00849167, No Iterations 56
time step continuity errors : sum local = 8.37036e-11, global = 1.89105e-19, cumulative = 1.0761e-17
Pressure gradient source: uncorrected Ubar = 0.39, pressure gradient = 0.00323777
GAMG:  Solving for p, Initial residual = 0.0770246, Final residual = 9.73717e-07, No Iterations 406
time step continuity errors : sum local = 1.08128e-14, global = 1.16436e-19, cumulative = 1.08774e-17
Pressure gradient source: uncorrected Ubar = 0.39, pressure gradient = 0.00323152
smoothSolver:  Solving for epsilon, Initial residual = 0.000318441, Final residual = 6.74409e-06, No Iterations 3
smoothSolver:  Solving for k, Initial residual = 0.000857615, Final residual = 4.35346e-06, No Iterations 5
ExecutionTime = 21.42 s  ClockTime = 21 s

Time = 2.35

Courant Number mean: 0.0234 max: 0.0280332
smoothSolver:  Solving for Ux, Initial residual = 0.000248158, Final residual = 7.94458e-06, No Iterations 3
smoothSolver:  Solving for Uy, Initial residual = 0.00983645, Final residual = 6.25968e-06, No Iterations 6
smoothSolver:  Solving for Uz, Initial residual = 0.0207359, Final residual = 9.99861e-06, No Iterations 6
Pressure gradient source: uncorrected Ubar = 0.389999, pressure gradient = 0.00325713
GAMG:  Solving for p, Initial residual = 0.088252, Final residual = 0.00865223, No Iterations 56
time step continuity errors : sum local = 8.20264e-11, global = 2.63607e-20, cumulative = 1.09038e-17
Pressure gradient source: uncorrected Ubar = 0.39, pressure gradient = 0.00323879
GAMG:  Solving for p, Initial residual = 0.0792552, Final residual = 9.66405e-07, No Iterations 408
time step continuity errors : sum local = 1.02536e-14, global = 4.90964e-20, cumulative = 1.09529e-17
Pressure gradient source: uncorrected Ubar = 0.39, pressure gradient = 0.00323265
smoothSolver:  Solving for epsilon, Initial residual = 0.000311867, Final residual = 6.4275e-06, No Iterations 3
smoothSolver:  Solving for k, Initial residual = 0.000854234, Final residual = 4.26051e-06, No Iterations 5
ExecutionTime = 21.95 s  ClockTime = 22 s

Time = 2.4

Courant Number mean: 0.0234 max: 0.0280319
smoothSolver:  Solving for Ux, Initial residual = 0.000246265, Final residual = 7.8004e-06, No Iterations 3
smoothSolver:  Solving for Uy, Initial residual = 0.0117791, Final residual = 7.5133e-06, No Iterations 6
smoothSolver:  Solving for Uz, Initial residual = 0.0197211, Final residual = 9.99743e-06, No Iterations 6
Pressure gradient source: uncorrected Ubar = 0.389999, pressure gradient = 0.00325781
GAMG:  Solving for p, Initial residual = 0.0930022, Final residual = 0.00920566, No Iterations 56
time step continuity errors : sum local = 8.35102e-11, global = 9.76662e-20, cumulative = 1.10505e-17
Pressure gradient source: uncorrected Ubar = 0.39, pressure gradient = 0.00323977
GAMG:  Solving for p, Initial residual = 0.0809965, Final residual = 9.81586e-07, No Iterations 408
time step continuity errors : sum local = 1.01506e-14, global = 1.30133e-19, cumulative = 1.11807e-17
Pressure gradient source: uncorrected Ubar = 0.39, pressure gradient = 0.00323374
smoothSolver:  Solving for epsilon, Initial residual = 0.00030558, Final residual = 6.13522e-06, No Iterations 3
smoothSolver:  Solving for k, Initial residual = 0.000850778, Final residual = 4.17646e-06, No Iterations 5
ExecutionTime = 22.47 s  ClockTime = 22 s

Time = 2.45

Courant Number mean: 0.0234 max: 0.0280307
smoothSolver:  Solving for Ux, Initial residual = 0.000244317, Final residual = 7.65957e-06, No Iterations 3
smoothSolver:  Solving for Uy, Initial residual = 0.0117045, Final residual = 7.35261e-06, No Iterations 6
smoothSolver:  Solving for Uz, Initial residual = 0.0188573, Final residual = 9.70466e-06, No Iterations 6
Pressure gradient source: uncorrected Ubar = 0.389999, pressure gradient = 0.00325847
GAMG:  Solving for p, Initial residual = 0.0938293, Final residual = 0.00919909, No Iterations 57
time step continuity errors : sum local = 8.08859e-11, global = 1.41712e-19, cumulative = 1.13224e-17
Pressure gradient source: uncorrected Ubar = 0.39, pressure gradient = 0.00324071
GAMG:  Solving for p, Initial residual = 0.0829726, Final residual = 9.80672e-07, No Iterations 410
time step continuity errors : sum local = 9.77492e-15, global = 2.04999e-19, cumulative = 1.15274e-17
Pressure gradient source: uncorrected Ubar = 0.39, pressure gradient = 0.0032348
smoothSolver:  Solving for epsilon, Initial residual = 0.000299571, Final residual = 5.84478e-06, No Iterations 3
smoothSolver:  Solving for k, Initial residual = 0.000849789, Final residual = 4.09358e-06, No Iterations 5
ExecutionTime = 23 s  ClockTime = 23 s

Time = 2.5

Courant Number mean: 0.0234 max: 0.0280295
smoothSolver:  Solving for Ux, Initial residual = 0.000242382, Final residual = 7.52006e-06, No Iterations 3
smoothSolver:  Solving for Uy, Initial residual = 0.0121958, Final residual = 7.28881e-06, No Iterations 6
smoothSolver:  Solving for Uz, Initial residual = 0.0179358, Final residual = 9.8749e-06, No Iterations 6
Pressure gradient source: uncorrected Ubar = 0.389999, pressure gradient = 0.0032591
GAMG:  Solving for p, Initial residual = 0.0978332, Final residual = 0.00959077, No Iterations 57
time step continuity errors : sum local = 8.14007e-11, global = 2.17198e-19, cumulative = 1.17446e-17
Pressure gradient source: uncorrected Ubar = 0.39, pressure gradient = 0.00324162
GAMG:  Solving for p, Initial residual = 0.0850805, Final residual = 9.96708e-07, No Iterations 410
time step continuity errors : sum local = 9.70898e-15, global = 2.08819e-19, cumulative = 1.19534e-17
Pressure gradient source: uncorrected Ubar = 0.39, pressure gradient = 0.00323582
smoothSolver:  Solving for epsilon, Initial residual = 0.000293753, Final residual = 5.59537e-06, No Iterations 3
smoothSolver:  Solving for k, Initial residual = 0.000850891, Final residual = 9.96045e-06, No Iterations 4
ExecutionTime = 23.53 s  ClockTime = 23 s

Time = 2.55

Courant Number mean: 0.0234001 max: 0.0280282
smoothSolver:  Solving for Ux, Initial residual = 0.000240679, Final residual = 7.38599e-06, No Iterations 3
smoothSolver:  Solving for Uy, Initial residual = 0.0123246, Final residual = 7.58379e-06, No Iterations 6
smoothSolver:  Solving for Uz, Initial residual = 0.0171, Final residual = 9.46875e-06, No Iterations 6
Pressure gradient source: uncorrected Ubar = 0.389999, pressure gradient = 0.00325972
GAMG:  Solving for p, Initial residual = 0.0956824, Final residual = 0.00945202, No Iterations 56
time step continuity errors : sum local = 7.78047e-11, global = 1.83929e-19, cumulative = 1.21373e-17
Pressure gradient source: uncorrected Ubar = 0.39, pressure gradient = 0.00324252
GAMG:  Solving for p, Initial residual = 0.0851082, Final residual = 9.69407e-07, No Iterations 412
time step continuity errors : sum local = 9.00533e-15, global = 1.6927e-19, cumulative = 1.23066e-17
Pressure gradient source: uncorrected Ubar = 0.39, pressure gradient = 0.00323682
smoothSolver:  Solving for epsilon, Initial residual = 0.000287977, Final residual = 5.32137e-06, No Iterations 3
smoothSolver:  Solving for k, Initial residual = 0.000851847, Final residual = 9.80313e-06, No Iterations 4
ExecutionTime = 24.06 s  ClockTime = 24 s

Time = 2.6

Courant Number mean: 0.0234001 max: 0.028027
smoothSolver:  Solving for Ux, Initial residual = 0.000239035, Final residual = 7.25417e-06, No Iterations 3
smoothSolver:  Solving for Uy, Initial residual = 0.0135176, Final residual = 8.32247e-06, No Iterations 6
smoothSolver:  Solving for Uz, Initial residual = 0.0160587, Final residual = 4.23721e-06, No Iterations 7
Pressure gradient source: uncorrected Ubar = 0.389999, pressure gradient = 0.00326032
GAMG:  Solving for p, Initial residual = 0.0982311, Final residual = 0.00981974, No Iterations 56
time step continuity errors : sum local = 7.72124e-11, global = 1.41037e-19, cumulative = 1.24476e-17
Pressure gradient source: uncorrected Ubar = 0.39, pressure gradient = 0.0032434
GAMG:  Solving for p, Initial residual = 0.0867448, Final residual = 9.89254e-07, No Iterations 412
time step continuity errors : sum local = 8.81174e-15, global = 2.29622e-19, cumulative = 1.26772e-17
Pressure gradient source: uncorrected Ubar = 0.39, pressure gradient = 0.0032378
smoothSolver:  Solving for epsilon, Initial residual = 0.000282313, Final residual = 5.07912e-06, No Iterations 3
smoothSolver:  Solving for k, Initial residual = 0.00085306, Final residual = 9.65332e-06, No Iterations 4
ExecutionTime = 24.59 s  ClockTime = 25 s

Time = 2.65

Courant Number mean: 0.0234001 max: 0.0280257
smoothSolver:  Solving for Ux, Initial residual = 0.000237396, Final residual = 7.11723e-06, No Iterations 3
smoothSolver:  Solving for Uy, Initial residual = 0.0129969, Final residual = 7.85087e-06, No Iterations 6
smoothSolver:  Solving for Uz, Initial residual = 0.0151118, Final residual = 4.26234e-06, No Iterations 7
Pressure gradient source: uncorrected Ubar = 0.389999, pressure gradient = 0.00326086
GAMG:  Solving for p, Initial residual = 0.106635, Final residual = 0.0105246, No Iterations 58
time step continuity errors : sum local = 8.01166e-11, global = 9.4566e-20, cumulative = 1.27718e-17
Pressure gradient source: uncorrected Ubar = 0.39, pressure gradient = 0.00324422
GAMG:  Solving for p, Initial residual = 0.0903181, Final residual = 9.82345e-07, No Iterations 412
time step continuity errors : sum local = 8.88127e-15, global = 1.43236e-19, cumulative = 1.29151e-17
Pressure gradient source: uncorrected Ubar = 0.39, pressure gradient = 0.00323873
smoothSolver:  Solving for epsilon, Initial residual = 0.000276818, Final residual = 4.86141e-06, No Iterations 3
smoothSolver:  Solving for k, Initial residual = 0.00085451, Final residual = 9.5025e-06, No Iterations 4
ExecutionTime = 25.13 s  ClockTime = 25 s

Time = 2.7

Courant Number mean: 0.0234001 max: 0.0280244
smoothSolver:  Solving for Ux, Initial residual = 0.000235773, Final residual = 6.99531e-06, No Iterations 3
smoothSolver:  Solving for Uy, Initial residual = 0.012145, Final residual = 7.21806e-06, No Iterations 6
smoothSolver:  Solving for Uz, Initial residual = 0.0150625, Final residual = 4.32198e-06, No Iterations 7
Pressure gradient source: uncorrected Ubar = 0.389999, pressure gradient = 0.00326144
GAMG:  Solving for p, Initial residual = 0.0979719, Final residual = 0.00964608, No Iterations 56
time step continuity errors : sum local = 7.28484e-11, global = -2.24153e-20, cumulative = 1.28926e-17
Pressure gradient source: uncorrected Ubar = 0.39, pressure gradient = 0.00324506
GAMG:  Solving for p, Initial residual = 0.0890675, Final residual = 9.85975e-07, No Iterations 414
time step continuity errors : sum local = 8.33942e-15, global = 1.68367e-19, cumulative = 1.3061e-17
Pressure gradient source: uncorrected Ubar = 0.39, pressure gradient = 0.00323967
smoothSolver:  Solving for epsilon, Initial residual = 0.000271647, Final residual = 4.64862e-06, No Iterations 3
smoothSolver:  Solving for k, Initial residual = 0.000856091, Final residual = 9.38036e-06, No Iterations 4
ExecutionTime = 25.68 s  ClockTime = 26 s

Time = 2.75

Courant Number mean: 0.0234001 max: 0.0280231
smoothSolver:  Solving for Ux, Initial residual = 0.000234114, Final residual = 6.86971e-06, No Iterations 3
smoothSolver:  Solving for Uy, Initial residual = 0.0134711, Final residual = 8.04314e-06, No Iterations 6
smoothSolver:  Solving for Uz, Initial residual = 0.0138724, Final residual = 4.70744e-06, No Iterations 7
Pressure gradient source: uncorrected Ubar = 0.389999, pressure gradient = 0.00326196
GAMG:  Solving for p, Initial residual = 0.107372, Final residual = 0.0105387, No Iterations 57
time step continuity errors : sum local = 7.5629e-11, global = 7.41617e-20, cumulative = 1.31352e-17
Pressure gradient source: uncorrected Ubar = 0.39, pressure gradient = 0.00324585
GAMG:  Solving for p, Initial residual = 0.0926365, Final residual = 9.88781e-07, No Iterations 415
time step continuity errors : sum local = 8.15051e-15, global = 1.48316e-19, cumulative = 1.32835e-17
Pressure gradient source: uncorrected Ubar = 0.39, pressure gradient = 0.00324056
smoothSolver:  Solving for epsilon, Initial residual = 0.000266929, Final residual = 4.45859e-06, No Iterations 3
smoothSolver:  Solving for k, Initial residual = 0.000857594, Final residual = 9.25067e-06, No Iterations 4
ExecutionTime = 26.25 s  ClockTime = 26 s

Time = 2.8

Courant Number mean: 0.0234001 max: 0.0280218
smoothSolver:  Solving for Ux, Initial residual = 0.000232436, Final residual = 6.74329e-06, No Iterations 3
smoothSolver:  Solving for Uy, Initial residual = 0.0125373, Final residual = 7.33724e-06, No Iterations 6
smoothSolver:  Solving for Uz, Initial residual = 0.0133137, Final residual = 4.6622e-06, No Iterations 7
Pressure gradient source: uncorrected Ubar = 0.389999, pressure gradient = 0.00326246
GAMG:  Solving for p, Initial residual = 0.112452, Final residual = 0.011055, No Iterations 57
time step continuity errors : sum local = 7.76934e-11, global = 8.85141e-20, cumulative = 1.3372e-17
Pressure gradient source: uncorrected Ubar = 0.39, pressure gradient = 0.00324661
GAMG:  Solving for p, Initial residual = 0.0940984, Final residual = 9.92411e-07, No Iterations 414
time step continuity errors : sum local = 8.21238e-15, global = -1.92359e-21, cumulative = 1.33701e-17
Pressure gradient source: uncorrected Ubar = 0.39, pressure gradient = 0.00324141
smoothSolver:  Solving for epsilon, Initial residual = 0.000262649, Final residual = 4.29352e-06, No Iterations 3
smoothSolver:  Solving for k, Initial residual = 0.000858869, Final residual = 9.13283e-06, No Iterations 4
ExecutionTime = 26.79 s  ClockTime = 27 s

Time = 2.85

Courant Number mean: 0.0234001 max: 0.0280205
smoothSolver:  Solving for Ux, Initial residual = 0.000230738, Final residual = 6.62585e-06, No Iterations 3
smoothSolver:  Solving for Uy, Initial residual = 0.011434, Final residual = 6.83431e-06, No Iterations 6
smoothSolver:  Solving for Uz, Initial residual = 0.0130923, Final residual = 4.57538e-06, No Iterations 7
Pressure gradient source: uncorrected Ubar = 0.389999, pressure gradient = 0.00326296
GAMG:  Solving for p, Initial residual = 0.105281, Final residual = 0.0104303, No Iterations 55
time step continuity errors : sum local = 7.26339e-11, global = -8.90731e-20, cumulative = 1.3281e-17
Pressure gradient source: uncorrected Ubar = 0.39, pressure gradient = 0.00324736
GAMG:  Solving for p, Initial residual = 0.0933484, Final residual = 9.7809e-07, No Iterations 416
time step continuity errors : sum local = 7.63381e-15, global = 8.87183e-20, cumulative = 1.33697e-17
Pressure gradient source: uncorrected Ubar = 0.39, pressure gradient = 0.00324226
smoothSolver:  Solving for epsilon, Initial residual = 0.000258571, Final residual = 4.11898e-06, No Iterations 3
smoothSolver:  Solving for k, Initial residual = 0.000861765, Final residual = 9.02785e-06, No Iterations 4
ExecutionTime = 27.32 s  ClockTime = 27 s

Time = 2.9

Courant Number mean: 0.0234001 max: 0.0280192
smoothSolver:  Solving for Ux, Initial residual = 0.000229006, Final residual = 6.50531e-06, No Iterations 3
smoothSolver:  Solving for Uy, Initial residual = 0.012, Final residual = 7.19054e-06, No Iterations 6
smoothSolver:  Solving for Uz, Initial residual = 0.0121091, Final residual = 4.86688e-06, No Iterations 7
Pressure gradient source: uncorrected Ubar = 0.389999, pressure gradient = 0.00326341
GAMG:  Solving for p, Initial residual = 0.112281, Final residual = 0.0110014, No Iterations 56
time step continuity errors : sum local = 7.32656e-11, global = -4.80041e-20, cumulative = 1.33217e-17
Pressure gradient source: uncorrected Ubar = 0.39, pressure gradient = 0.00324808
GAMG:  Solving for p, Initial residual = 0.0958045, Final residual = 9.95592e-07, No Iterations 415
time step continuity errors : sum local = 7.70014e-15, global = 1.15097e-19, cumulative = 1.34368e-17
Pressure gradient source: uncorrected Ubar = 0.39, pressure gradient = 0.00324307
smoothSolver:  Solving for epsilon, Initial residual = 0.000254656, Final residual = 3.97694e-06, No Iterations 3
smoothSolver:  Solving for k, Initial residual = 0.000865703, Final residual = 8.9237e-06, No Iterations 4
ExecutionTime = 27.85 s  ClockTime = 28 s

Time = 2.95

Courant Number mean: 0.0234001 max: 0.0280179
smoothSolver:  Solving for Ux, Initial residual = 0.000227256, Final residual = 6.38791e-06, No Iterations 3
smoothSolver:  Solving for Uy, Initial residual = 0.010935, Final residual = 6.46858e-06, No Iterations 6
smoothSolver:  Solving for Uz, Initial residual = 0.011509, Final residual = 4.87202e-06, No Iterations 7
Pressure gradient source: uncorrected Ubar = 0.389999, pressure gradient = 0.00326386
GAMG:  Solving for p, Initial residual = 0.112287, Final residual = 0.0109646, No Iterations 56
time step continuity errors : sum local = 7.20296e-11, global = 1.24243e-19, cumulative = 1.35611e-17
Pressure gradient source: uncorrected Ubar = 0.39, pressure gradient = 0.00324878
GAMG:  Solving for p, Initial residual = 0.0969911, Final residual = 9.7246e-07, No Iterations 416
time step continuity errors : sum local = 7.36722e-15, global = 1.87682e-19, cumulative = 1.37487e-17
Pressure gradient source: uncorrected Ubar = 0.39, pressure gradient = 0.00324386
smoothSolver:  Solving for epsilon, Initial residual = 0.000250916, Final residual = 3.8392e-06, No Iterations 3
smoothSolver:  Solving for k, Initial residual = 0.00086976, Final residual = 8.80401e-06, No Iterations 4
ExecutionTime = 28.38 s  ClockTime = 28 s

Time = 3

Courant Number mean: 0.0234001 max: 0.0280166
smoothSolver:  Solving for Ux, Initial residual = 0.000225483, Final residual = 6.27246e-06, No Iterations 3
smoothSolver:  Solving for Uy, Initial residual = 0.0113585, Final residual = 6.91626e-06, No Iterations 6
smoothSolver:  Solving for Uz, Initial residual = 0.0109136, Final residual = 4.90383e-06, No Iterations 7
Pressure gradient source: uncorrected Ubar = 0.389999, pressure gradient = 0.00326428
GAMG:  Solving for p, Initial residual = 0.113994, Final residual = 0.0112479, No Iterations 55
time step continuity errors : sum local = 7.24925e-11, global = -6.72829e-20, cumulative = 1.36814e-17
Pressure gradient source: uncorrected Ubar = 0.39, pressure gradient = 0.00324945
GAMG:  Solving for p, Initial residual = 0.0979585, Final residual = 9.78271e-07, No Iterations 416
time step continuity errors : sum local = 7.27025e-15, global = 9.66865e-20, cumulative = 1.37781e-17
Pressure gradient source: uncorrected Ubar = 0.39, pressure gradient = 0.00324462
smoothSolver:  Solving for epsilon, Initial residual = 0.000247313, Final residual = 3.71613e-06, No Iterations 3
[...]
GAMG:  Solving for p, Initial residual = 0.136514, Final residual = 9.85441e-07, No Iterations 433
time step continuity errors : sum local = 9.12271e-16, global = 7.02447e-20, cumulative = 2.73925e-16
Pressure gradient source: uncorrected Ubar = 0.39, pressure gradient = 0.00323357
smoothSolver:  Solving for epsilon, Initial residual = 9.77138e-06, Final residual = 9.77138e-06, No Iterations 0
smoothSolver:  Solving for k, Initial residual = 5.008e-05, Final residual = 6.45291e-06, No Iterations 1
ExecutionTime = 721.01 s  ClockTime = 723 s

Time = 79.3

Courant Number mean: 0.0234 max: 0.0280003
smoothSolver:  Solving for Ux, Initial residual = 5.35602e-06, Final residual = 5.35602e-06, No Iterations 0
smoothSolver:  Solving for Uy, Initial residual = 0.011922, Final residual = 4.45667e-06, No Iterations 7
smoothSolver:  Solving for Uz, Initial residual = 0.00599623, Final residual = 4.81592e-06, No Iterations 6
Pressure gradient source: uncorrected Ubar = 0.39, pressure gradient = 0.00323357
GAMG:  Solving for p, Initial residual = 0.133816, Final residual = 0.0126185, No Iterations 57
time step continuity errors : sum local = 1.18493e-11, global = 8.10987e-20, cumulative = 2.74006e-16
Pressure gradient source: uncorrected Ubar = 0.39, pressure gradient = 0.00323299
GAMG:  Solving for p, Initial residual = 0.134894, Final residual = 9.68118e-07, No Iterations 434
time step continuity errors : sum local = 9.08989e-16, global = 1.95735e-19, cumulative = 2.74202e-16
Pressure gradient source: uncorrected Ubar = 0.39, pressure gradient = 0.00323354
smoothSolver:  Solving for epsilon, Initial residual = 1.00247e-05, Final residual = 1.53491e-06, No Iterations 1
smoothSolver:  Solving for k, Initial residual = 4.90564e-05, Final residual = 6.25053e-06, No Iterations 1
ExecutionTime = 721.56 s  ClockTime = 724 s

Time = 79.35

Courant Number mean: 0.0234 max: 0.0280004
smoothSolver:  Solving for Ux, Initial residual = 5.30606e-06, Final residual = 5.30606e-06, No Iterations 0
smoothSolver:  Solving for Uy, Initial residual = 0.0122524, Final residual = 4.50115e-06, No Iterations 7
smoothSolver:  Solving for Uz, Initial residual = 0.00604215, Final residual = 5.29262e-06, No Iterations 6
Pressure gradient source: uncorrected Ubar = 0.39, pressure gradient = 0.00323354
GAMG:  Solving for p, Initial residual = 0.142749, Final residual = 0.0135999, No Iterations 53
time step continuity errors : sum local = 1.28463e-11, global = 1.40791e-19, cumulative = 2.74343e-16
Pressure gradient source: uncorrected Ubar = 0.39, pressure gradient = 0.003233
GAMG:  Solving for p, Initial residual = 0.13851, Final residual = 9.91027e-07, No Iterations 433
time step continuity errors : sum local = 9.13012e-16, global = 1.16375e-19, cumulative = 2.74459e-16
Pressure gradient source: uncorrected Ubar = 0.39, pressure gradient = 0.00323354
smoothSolver:  Solving for epsilon, Initial residual = 9.06068e-06, Final residual = 9.06068e-06, No Iterations 0
smoothSolver:  Solving for k, Initial residual = 4.80336e-05, Final residual = 6.05187e-06, No Iterations 1
ExecutionTime = 722.1 s  ClockTime = 724 s

Time = 79.4

Courant Number mean: 0.0234 max: 0.0280005
smoothSolver:  Solving for Ux, Initial residual = 5.31069e-06, Final residual = 5.31069e-06, No Iterations 0
smoothSolver:  Solving for Uy, Initial residual = 0.0118343, Final residual = 4.47019e-06, No Iterations 7
smoothSolver:  Solving for Uz, Initial residual = 0.00643123, Final residual = 4.81349e-06, No Iterations 6
Pressure gradient source: uncorrected Ubar = 0.39, pressure gradient = 0.00323354
GAMG:  Solving for p, Initial residual = 0.140395, Final residual = 0.0139489, No Iterations 53
time step continuity errors : sum local = 1.32353e-11, global = 7.39304e-20, cumulative = 2.74533e-16
Pressure gradient source: uncorrected Ubar = 0.39, pressure gradient = 0.00323295
GAMG:  Solving for p, Initial residual = 0.140665, Final residual = 9.9786e-07, No Iterations 434
time step continuity errors : sum local = 9.13088e-16, global = 1.14147e-19, cumulative = 2.74647e-16
Pressure gradient source: uncorrected Ubar = 0.39, pressure gradient = 0.00323352
smoothSolver:  Solving for epsilon, Initial residual = 9.27859e-06, Final residual = 9.27859e-06, No Iterations 0
smoothSolver:  Solving for k, Initial residual = 4.8661e-05, Final residual = 6.16187e-06, No Iterations 1
ExecutionTime = 722.65 s  ClockTime = 725 s

Time = 79.45

Courant Number mean: 0.0234 max: 0.0280007
smoothSolver:  Solving for Ux, Initial residual = 5.31685e-06, Final residual = 5.31685e-06, No Iterations 0
smoothSolver:  Solving for Uy, Initial residual = 0.0121815, Final residual = 4.5764e-06, No Iterations 7
smoothSolver:  Solving for Uz, Initial residual = 0.00646768, Final residual = 4.93726e-06, No Iterations 6
Pressure gradient source: uncorrected Ubar = 0.39, pressure gradient = 0.00323352
GAMG:  Solving for p, Initial residual = 0.143294, Final residual = 0.0141621, No Iterations 55
time step continuity errors : sum local = 1.3363e-11, global = 1.07075e-19, cumulative = 2.74754e-16
Pressure gradient source: uncorrected Ubar = 0.39, pressure gradient = 0.0032329
GAMG:  Solving for p, Initial residual = 0.148614, Final residual = 9.96721e-07, No Iterations 439
time step continuity errors : sum local = 9.03675e-16, global = 1.88083e-19, cumulative = 2.74943e-16
Pressure gradient source: uncorrected Ubar = 0.39, pressure gradient = 0.00323349
smoothSolver:  Solving for epsilon, Initial residual = 9.50936e-06, Final residual = 9.50936e-06, No Iterations 0
smoothSolver:  Solving for k, Initial residual = 4.93071e-05, Final residual = 6.27615e-06, No Iterations 1
ExecutionTime = 723.2 s  ClockTime = 725 s

Time = 79.5

Courant Number mean: 0.0234 max: 0.0280008
smoothSolver:  Solving for Ux, Initial residual = 5.32396e-06, Final residual = 5.32396e-06, No Iterations 0
smoothSolver:  Solving for Uy, Initial residual = 0.0120581, Final residual = 4.56819e-06, No Iterations 7
smoothSolver:  Solving for Uz, Initial residual = 0.00643022, Final residual = 5.06998e-06, No Iterations 6
Pressure gradient source: uncorrected Ubar = 0.39, pressure gradient = 0.00323349
GAMG:  Solving for p, Initial residual = 0.141132, Final residual = 0.0139611, No Iterations 57
time step continuity errors : sum local = 1.33132e-11, global = 9.3608e-21, cumulative = 2.74952e-16
Pressure gradient source: uncorrected Ubar = 0.39, pressure gradient = 0.00323286
GAMG:  Solving for p, Initial residual = 0.149641, Final residual = 9.85752e-07, No Iterations 441
time step continuity errors : sum local = 9.0227e-16, global = 9.47149e-20, cumulative = 2.75047e-16
Pressure gradient source: uncorrected Ubar = 0.39, pressure gradient = 0.00323346
smoothSolver:  Solving for epsilon, Initial residual = 9.75664e-06, Final residual = 9.75664e-06, No Iterations 0
smoothSolver:  Solving for k, Initial residual = 4.99661e-05, Final residual = 6.3943e-06, No Iterations 1
ExecutionTime = 723.77 s  ClockTime = 726 s

Time = 79.55

Courant Number mean: 0.0234 max: 0.0280009
smoothSolver:  Solving for Ux, Initial residual = 5.33392e-06, Final residual = 5.33392e-06, No Iterations 0
smoothSolver:  Solving for Uy, Initial residual = 0.0120392, Final residual = 4.58983e-06, No Iterations 7
smoothSolver:  Solving for Uz, Initial residual = 0.00647934, Final residual = 5.18718e-06, No Iterations 6
Pressure gradient source: uncorrected Ubar = 0.39, pressure gradient = 0.00323346
GAMG:  Solving for p, Initial residual = 0.142813, Final residual = 0.0141325, No Iterations 55
time step continuity errors : sum local = 1.36368e-11, global = 2.66365e-19, cumulative = 2.75313e-16
Pressure gradient source: uncorrected Ubar = 0.39, pressure gradient = 0.00323281
GAMG:  Solving for p, Initial residual = 0.148271, Final residual = 9.90761e-07, No Iterations 439
time step continuity errors : sum local = 9.19852e-16, global = 1.70642e-19, cumulative = 2.75484e-16
Pressure gradient source: uncorrected Ubar = 0.39, pressure gradient = 0.00323343
smoothSolver:  Solving for epsilon, Initial residual = 1.00189e-05, Final residual = 1.54214e-06, No Iterations 1
smoothSolver:  Solving for k, Initial residual = 4.89017e-05, Final residual = 6.18622e-06, No Iterations 1
ExecutionTime = 724.32 s  ClockTime = 726 s

Time = 79.6

Courant Number mean: 0.0234 max: 0.0280011
smoothSolver:  Solving for Ux, Initial residual = 5.29102e-06, Final residual = 5.29102e-06, No Iterations 0
smoothSolver:  Solving for Uy, Initial residual = 0.0124275, Final residual = 4.66907e-06, No Iterations 7
smoothSolver:  Solving for Uz, Initial residual = 0.00674634, Final residual = 5.73702e-06, No Iterations 6
Pressure gradient source: uncorrected Ubar = 0.39, pressure gradient = 0.00323343
GAMG:  Solving for p, Initial residual = 0.146529, Final residual = 0.0145911, No Iterations 53
time step continuity errors : sum local = 1.40522e-11, global = 8.42739e-20, cumulative = 2.75568e-16
Pressure gradient source: uncorrected Ubar = 0.39, pressure gradient = 0.00323282
GAMG:  Solving for p, Initial residual = 0.149831, Final residual = 9.75928e-07, No Iterations 438
time step continuity errors : sum local = 8.96579e-16, global = 1.47911e-19, cumulative = 2.75716e-16
Pressure gradient source: uncorrected Ubar = 0.39, pressure gradient = 0.00323343
smoothSolver:  Solving for epsilon, Initial residual = 9.04189e-06, Final residual = 9.04189e-06, No Iterations 0
smoothSolver:  Solving for k, Initial residual = 4.78272e-05, Final residual = 5.98436e-06, No Iterations 1
ExecutionTime = 724.86 s  ClockTime = 727 s

Time = 79.65

Courant Number mean: 0.0234 max: 0.0280012
smoothSolver:  Solving for Ux, Initial residual = 5.29804e-06, Final residual = 5.29804e-06, No Iterations 0
smoothSolver:  Solving for Uy, Initial residual = 0.0118403, Final residual = 4.55072e-06, No Iterations 7
smoothSolver:  Solving for Uz, Initial residual = 0.00694385, Final residual = 5.14825e-06, No Iterations 6
Pressure gradient source: uncorrected Ubar = 0.39, pressure gradient = 0.00323343
GAMG:  Solving for p, Initial residual = 0.134721, Final residual = 0.0130423, No Iterations 57
time step continuity errors : sum local = 1.26189e-11, global = 1.97324e-19, cumulative = 2.75913e-16
Pressure gradient source: uncorrected Ubar = 0.39, pressure gradient = 0.00323277
GAMG:  Solving for p, Initial residual = 0.143187, Final residual = 9.90437e-07, No Iterations 438
time step continuity errors : sum local = 9.23357e-16, global = 8.85764e-20, cumulative = 2.76002e-16
Pressure gradient source: uncorrected Ubar = 0.39, pressure gradient = 0.00323341
smoothSolver:  Solving for epsilon, Initial residual = 9.26936e-06, Final residual = 9.26936e-06, No Iterations 0
smoothSolver:  Solving for k, Initial residual = 4.84455e-05, Final residual = 6.096e-06, No Iterations 1
ExecutionTime = 725.41 s  ClockTime = 728 s

Time = 79.7

Courant Number mean: 0.0234 max: 0.0280013
smoothSolver:  Solving for Ux, Initial residual = 5.30712e-06, Final residual = 5.30712e-06, No Iterations 0
smoothSolver:  Solving for Uy, Initial residual = 0.0117895, Final residual = 4.56744e-06, No Iterations 7
smoothSolver:  Solving for Uz, Initial residual = 0.00704247, Final residual = 5.22711e-06, No Iterations 6
Pressure gradient source: uncorrected Ubar = 0.39, pressure gradient = 0.00323341
GAMG:  Solving for p, Initial residual = 0.131, Final residual = 0.0127959, No Iterations 57
time step continuity errors : sum local = 1.25588e-11, global = 2.23905e-19, cumulative = 2.76226e-16
Pressure gradient source: uncorrected Ubar = 0.39, pressure gradient = 0.00323272
GAMG:  Solving for p, Initial residual = 0.139555, Final residual = 9.68046e-07, No Iterations 438
time step continuity errors : sum local = 9.16224e-16, global = 1.31919e-19, cumulative = 2.76357e-16
Pressure gradient source: uncorrected Ubar = 0.39, pressure gradient = 0.00323338
smoothSolver:  Solving for epsilon, Initial residual = 9.50843e-06, Final residual = 9.50843e-06, No Iterations 0
smoothSolver:  Solving for k, Initial residual = 4.90884e-05, Final residual = 6.2122e-06, No Iterations 1
ExecutionTime = 725.96 s  ClockTime = 728 s

Time = 79.75

Courant Number mean: 0.0234 max: 0.0280015
smoothSolver:  Solving for Ux, Initial residual = 5.31706e-06, Final residual = 5.31706e-06, No Iterations 0
smoothSolver:  Solving for Uy, Initial residual = 0.0117341, Final residual = 4.59465e-06, No Iterations 7
smoothSolver:  Solving for Uz, Initial residual = 0.00724998, Final residual = 5.30072e-06, No Iterations 6
Pressure gradient source: uncorrected Ubar = 0.39, pressure gradient = 0.00323338
GAMG:  Solving for p, Initial residual = 0.136202, Final residual = 0.0133035, No Iterations 56
time step continuity errors : sum local = 1.32146e-11, global = 1.56985e-19, cumulative = 2.76514e-16
Pressure gradient source: uncorrected Ubar = 0.39, pressure gradient = 0.00323267
GAMG:  Solving for p, Initial residual = 0.143115, Final residual = 9.96747e-07, No Iterations 436
time step continuity errors : sum local = 9.40795e-16, global = 9.53209e-20, cumulative = 2.7661e-16
Pressure gradient source: uncorrected Ubar = 0.39, pressure gradient = 0.00323335
smoothSolver:  Solving for epsilon, Initial residual = 9.76192e-06, Final residual = 9.76192e-06, No Iterations 0
smoothSolver:  Solving for k, Initial residual = 4.97509e-05, Final residual = 6.33223e-06, No Iterations 1
ExecutionTime = 726.52 s  ClockTime = 729 s

Time = 79.8

Courant Number mean: 0.0234 max: 0.0280016
smoothSolver:  Solving for Ux, Initial residual = 5.32739e-06, Final residual = 5.32739e-06, No Iterations 0
smoothSolver:  Solving for Uy, Initial residual = 0.0116261, Final residual = 4.58536e-06, No Iterations 7
smoothSolver:  Solving for Uz, Initial residual = 0.00714863, Final residual = 5.38607e-06, No Iterations 6
Pressure gradient source: uncorrected Ubar = 0.39, pressure gradient = 0.00323335
GAMG:  Solving for p, Initial residual = 0.132737, Final residual = 0.0132465, No Iterations 53
time step continuity errors : sum local = 1.32734e-11, global = 5.31459e-20, cumulative = 2.76663e-16
Pressure gradient source: uncorrected Ubar = 0.39, pressure gradient = 0.00323263
GAMG:  Solving for p, Initial residual = 0.140027, Final residual = 9.86644e-07, No Iterations 437
time step continuity errors : sum local = 9.55826e-16, global = 2.08874e-20, cumulative = 2.76684e-16
Pressure gradient source: uncorrected Ubar = 0.39, pressure gradient = 0.00323332
smoothSolver:  Solving for epsilon, Initial residual = 1.00291e-05, Final residual = 1.54313e-06, No Iterations 1
smoothSolver:  Solving for k, Initial residual = 4.87012e-05, Final residual = 6.12349e-06, No Iterations 1
ExecutionTime = 727.07 s  ClockTime = 729 s

Time = 79.85

Courant Number mean: 0.0234 max: 0.0280018
smoothSolver:  Solving for Ux, Initial residual = 5.284e-06, Final residual = 5.284e-06, No Iterations 0
smoothSolver:  Solving for Uy, Initial residual = 0.0120197, Final residual = 4.62812e-06, No Iterations 7
smoothSolver:  Solving for Uz, Initial residual = 0.00727749, Final residual = 5.93156e-06, No Iterations 6
Pressure gradient source: uncorrected Ubar = 0.39, pressure gradient = 0.00323332
GAMG:  Solving for p, Initial residual = 0.140639, Final residual = 0.0136453, No Iterations 51
time step continuity errors : sum local = 1.37113e-11, global = 5.72739e-20, cumulative = 2.76741e-16
Pressure gradient source: uncorrected Ubar = 0.39, pressure gradient = 0.00323263
GAMG:  Solving for p, Initial residual = 0.142142, Final residual = 9.72012e-07, No Iterations 434
time step continuity errors : sum local = 9.38699e-16, global = 1.89856e-19, cumulative = 2.76931e-16
Pressure gradient source: uncorrected Ubar = 0.39, pressure gradient = 0.00323332
smoothSolver:  Solving for epsilon, Initial residual = 9.03321e-06, Final residual = 9.03321e-06, No Iterations 0
smoothSolver:  Solving for k, Initial residual = 4.76337e-05, Final residual = 5.91668e-06, No Iterations 1
ExecutionTime = 727.61 s  ClockTime = 730 s

Time = 79.9

Courant Number mean: 0.0234 max: 0.0280019
smoothSolver:  Solving for Ux, Initial residual = 5.29076e-06, Final residual = 5.29076e-06, No Iterations 0
smoothSolver:  Solving for Uy, Initial residual = 0.0116488, Final residual = 4.59883e-06, No Iterations 7
smoothSolver:  Solving for Uz, Initial residual = 0.00740948, Final residual = 5.20764e-06, No Iterations 6
Pressure gradient source: uncorrected Ubar = 0.39, pressure gradient = 0.00323332
GAMG:  Solving for p, Initial residual = 0.126703, Final residual = 0.0125799, No Iterations 54
time step continuity errors : sum local = 1.27645e-11, global = -5.9042e-20, cumulative = 2.76872e-16
Pressure gradient source: uncorrected Ubar = 0.39, pressure gradient = 0.00323259
GAMG:  Solving for p, Initial residual = 0.13474, Final residual = 9.67109e-07, No Iterations 434
time step continuity errors : sum local = 9.51964e-16, global = 6.67012e-22, cumulative = 2.76873e-16
Pressure gradient source: uncorrected Ubar = 0.39, pressure gradient = 0.0032333
smoothSolver:  Solving for epsilon, Initial residual = 9.26053e-06, Final residual = 9.26053e-06, No Iterations 0
smoothSolver:  Solving for k, Initial residual = 4.82756e-05, Final residual = 6.02946e-06, No Iterations 1
ExecutionTime = 728.15 s  ClockTime = 730 s

Time = 79.95

Courant Number mean: 0.0234 max: 0.028002
smoothSolver:  Solving for Ux, Initial residual = 5.29898e-06, Final residual = 5.29898e-06, No Iterations 0
smoothSolver:  Solving for Uy, Initial residual = 0.0115761, Final residual = 4.57538e-06, No Iterations 7
smoothSolver:  Solving for Uz, Initial residual = 0.00750054, Final residual = 5.25619e-06, No Iterations 6
Pressure gradient source: uncorrected Ubar = 0.39, pressure gradient = 0.0032333
GAMG:  Solving for p, Initial residual = 0.123576, Final residual = 0.0121373, No Iterations 54
time step continuity errors : sum local = 1.26149e-11, global = 7.18915e-20, cumulative = 2.76944e-16
Pressure gradient source: uncorrected Ubar = 0.39, pressure gradient = 0.00323254
GAMG:  Solving for p, Initial residual = 0.130767, Final residual = 9.76994e-07, No Iterations 432
time step continuity errors : sum local = 9.84729e-16, global = 7.82023e-20, cumulative = 2.77023e-16
Pressure gradient source: uncorrected Ubar = 0.39, pressure gradient = 0.00323327
smoothSolver:  Solving for epsilon, Initial residual = 9.5002e-06, Final residual = 9.5002e-06, No Iterations 0
smoothSolver:  Solving for k, Initial residual = 4.89436e-05, Final residual = 6.14248e-06, No Iterations 1
ExecutionTime = 728.69 s  ClockTime = 731 s

Time = 80

Courant Number mean: 0.0234 max: 0.0280022
smoothSolver:  Solving for Ux, Initial residual = 5.30756e-06, Final residual = 5.30756e-06, No Iterations 0
smoothSolver:  Solving for Uy, Initial residual = 0.0115729, Final residual = 4.57149e-06, No Iterations 7
smoothSolver:  Solving for Uz, Initial residual = 0.0075819, Final residual = 5.32587e-06, No Iterations 6
Pressure gradient source: uncorrected Ubar = 0.39, pressure gradient = 0.00323327
GAMG:  Solving for p, Initial residual = 0.120358, Final residual = 0.0119439, No Iterations 54
time step continuity errors : sum local = 1.26749e-11, global = 2.95592e-20, cumulative = 2.77052e-16
Pressure gradient source: uncorrected Ubar = 0.39, pressure gradient = 0.0032325
GAMG:  Solving for p, Initial residual = 0.127361, Final residual = 9.9481e-07, No Iterations 430
time step continuity errors : sum local = 1.02401e-15, global = 1.10526e-19, cumulative = 2.77163e-16
Pressure gradient source: uncorrected Ubar = 0.39, pressure gradient = 0.00323324
smoothSolver:  Solving for epsilon, Initial residual = 9.75442e-06, Final residual = 9.75442e-06, No Iterations 0
smoothSolver:  Solving for k, Initial residual = 4.96277e-05, Final residual = 6.26221e-06, No Iterations 1
ExecutionTime = 729.27 s  ClockTime = 732 s

End

Finalising parallel run
