--------------------------------------------------------------------------
[[3219,1],0]: A high-performance Open MPI point-to-point messaging module
was unable to find any relevant network interfaces:

Module: OpenFabrics (openib)
  Host: hyd37

Another transport will be used instead, although this may result in
lower performance.
--------------------------------------------------------------------------
/*---------------------------------------------------------------------------*\
  =========                 |
  \\      /  F ield         | OpenFOAM: The Open Source CFD Toolbox
   \\    /   O peration     | Website:  https://openfoam.org
    \\  /    A nd           | Version:  6
     \\/     M anipulation  |
\*---------------------------------------------------------------------------*/
Build  : 6-eb0ce5d792a1
Exec   : pisoFoam -parallel
Date   : Jul 09 2022
Time   : 19:51:27
Host   : "hyd37"
PID    : 105098
I/O    : uncollated
Case   : /students/rtanuharja/turbSimCoMe/precursor_kEpsilonUltraFine
nProcs : 3
Slaves : 
2
(
"hyd37.105099"
"hyd37.105100"
)

Pstream initialized with:
    floatTransfer      : 0
    nProcsSimpleSum    : 0
    commsType          : nonBlocking
    polling iterations : 0
fileModificationChecking : Monitoring run-time modified files using timeStampMaster (fileModificationSkew 10)
allowSystemOperations : Allowing user-supplied system call operations

// * * * * * * * * * * * * * * * * * * * * * * * * * * * * * * * * * * * * * //
Create time

Create mesh for time = 0

Reading field p

Reading field U

Reading/calculating face flux field phi

Selecting incompressible transport model Newtonian
Selecting turbulence model type RAS
Selecting RAS turbulence model kEpsilon
RAS
{
    RASModel        kEpsilon;
    turbulence      on;
    printCoeffs     on;
    Cmu             0.09;
    C1              1.44;
    C2              1.92;
    C3              0;
    sigmak          1;
    sigmaEps        1.3;
}

No MRF models present

Creating finite volume options from "constant/fvOptions"

Selecting finite volume options model type meanVelocityForce
    Source: momentumSource
    - selecting all cells
    - selected 3240 cell(s) with volume 0.45
    Initial pressure gradient = 0


Starting time loop

Time = 0.05

Courant Number mean: 0.0233854 max: 0.0281734
smoothSolver:  Solving for Ux, Initial residual = 0.00445601, Final residual = 6.78427e-06, No Iterations 9
smoothSolver:  Solving for Uy, Initial residual = 0.0260834, Final residual = 9.30161e-06, No Iterations 15
smoothSolver:  Solving for Uz, Initial residual = 0.0650305, Final residual = 8.81006e-06, No Iterations 18
Pressure gradient source: uncorrected Ubar = 0.389534, pressure gradient = 0.0154889
GAMG:  Solving for p, Initial residual = 0.947167, Final residual = 0.0926269, No Iterations 60
time step continuity errors : sum local = 4.24815e-09, global = -3.69649e-21, cumulative = -3.69649e-21
Pressure gradient source: uncorrected Ubar = 0.389682, pressure gradient = 0.010593
GAMG:  Solving for p, Initial residual = 0.0532687, Final residual = 9.78014e-07, No Iterations 558
time step continuity errors : sum local = 2.55615e-13, global = -7.61988e-20, cumulative = -7.98953e-20
Pressure gradient source: uncorrected Ubar = 0.389696, pressure gradient = 0.01012
smoothSolver:  Solving for epsilon, Initial residual = 0.0135999, Final residual = 7.28671e-06, No Iterations 7
smoothSolver:  Solving for k, Initial residual = 0.0115719, Final residual = 7.75526e-06, No Iterations 11
ExecutionTime = 1.11 s  ClockTime = 1 s

Time = 0.1

Courant Number mean: 0.0233819 max: 0.0281641
smoothSolver:  Solving for Ux, Initial residual = 0.00239017, Final residual = 7.61741e-06, No Iterations 10
smoothSolver:  Solving for Uy, Initial residual = 0.363865, Final residual = 9.51565e-06, No Iterations 25
smoothSolver:  Solving for Uz, Initial residual = 0.384673, Final residual = 9.63843e-06, No Iterations 25
Pressure gradient source: uncorrected Ubar = 0.390295, pressure gradient = 0.000301072
GAMG:  Solving for p, Initial residual = 0.341581, Final residual = 0.0338338, No Iterations 46
time step continuity errors : sum local = 6.72941e-09, global = 1.49623e-19, cumulative = 6.97278e-20
Pressure gradient source: uncorrected Ubar = 0.390203, pressure gradient = 0.00338746
GAMG:  Solving for p, Initial residual = 0.495056, Final residual = 9.72507e-07, No Iterations 658
time step continuity errors : sum local = 4.86146e-14, global = 3.08676e-20, cumulative = 1.00595e-19
Pressure gradient source: uncorrected Ubar = 0.390194, pressure gradient = 0.00368591
smoothSolver:  Solving for epsilon, Initial residual = 0.00265183, Final residual = 7.2545e-06, No Iterations 8
smoothSolver:  Solving for k, Initial residual = 0.00685615, Final residual = 7.51702e-06, No Iterations 12
ExecutionTime = 2.22 s  ClockTime = 3 s

Time = 0.15

Courant Number mean: 0.0233993 max: 0.0281814
smoothSolver:  Solving for Ux, Initial residual = 0.000784009, Final residual = 5.74517e-06, No Iterations 6
smoothSolver:  Solving for Uy, Initial residual = 0.244161, Final residual = 7.57672e-06, No Iterations 26
smoothSolver:  Solving for Uz, Initial residual = 0.271915, Final residual = 7.39772e-06, No Iterations 28
Pressure gradient source: uncorrected Ubar = 0.38998, pressure gradient = 0.00433718
GAMG:  Solving for p, Initial residual = 0.713735, Final residual = 0.069175, No Iterations 19
time step continuity errors : sum local = 4.00887e-09, global = -4.34224e-20, cumulative = 5.71731e-20
Pressure gradient source: uncorrected Ubar = 0.389986, pressure gradient = 0.00413567
GAMG:  Solving for p, Initial residual = 0.403098, Final residual = 9.99892e-07, No Iterations 555
time step continuity errors : sum local = 7.14916e-14, global = 7.76385e-20, cumulative = 1.34812e-19
Pressure gradient source: uncorrected Ubar = 0.389987, pressure gradient = 0.00411475
smoothSolver:  Solving for epsilon, Initial residual = 0.00270053, Final residual = 7.26893e-06, No Iterations 6
smoothSolver:  Solving for k, Initial residual = 0.0044993, Final residual = 8.99558e-06, No Iterations 10
ExecutionTime = 3.15 s  ClockTime = 3 s

Time = 0.2

Courant Number mean: 0.0233982 max: 0.0281798
smoothSolver:  Solving for Ux, Initial residual = 0.000571828, Final residual = 8.14138e-06, No Iterations 6
smoothSolver:  Solving for Uy, Initial residual = 0.242428, Final residual = 9.73559e-06, No Iterations 25
smoothSolver:  Solving for Uz, Initial residual = 0.309915, Final residual = 9.75123e-06, No Iterations 27
Pressure gradient source: uncorrected Ubar = 0.390002, pressure gradient = 0.00405615
GAMG:  Solving for p, Initial residual = 0.474025, Final residual = 0.0463419, No Iterations 26
time step continuity errors : sum local = 2.76678e-09, global = 1.39291e-20, cumulative = 1.48741e-19
Pressure gradient source: uncorrected Ubar = 0.390001, pressure gradient = 0.00407831
GAMG:  Solving for p, Initial residual = 0.44641, Final residual = 9.6656e-07, No Iterations 523
time step continuity errors : sum local = 4.34384e-14, global = 3.04946e-22, cumulative = 1.49046e-19
Pressure gradient source: uncorrected Ubar = 0.390001, pressure gradient = 0.00408179
smoothSolver:  Solving for epsilon, Initial residual = 0.00278069, Final residual = 8.96277e-06, No Iterations 7
smoothSolver:  Solving for k, Initial residual = 0.00358643, Final residual = 7.62014e-06, No Iterations 9
ExecutionTime = 4.02 s  ClockTime = 4 s

Time = 0.25

Courant Number mean: 0.0233986 max: 0.0281795
smoothSolver:  Solving for Ux, Initial residual = 0.000485997, Final residual = 8.70313e-06, No Iterations 6
smoothSolver:  Solving for Uy, Initial residual = 0.204469, Final residual = 7.7439e-06, No Iterations 25
smoothSolver:  Solving for Uz, Initial residual = 0.247809, Final residual = 7.57274e-06, No Iterations 27
Pressure gradient source: uncorrected Ubar = 0.39, pressure gradient = 0.00409623
GAMG:  Solving for p, Initial residual = 0.492202, Final residual = 0.048793, No Iterations 22
time step continuity errors : sum local = 2.11565e-09, global = -1.18488e-20, cumulative = 1.37197e-19
Pressure gradient source: uncorrected Ubar = 0.39, pressure gradient = 0.00409834
GAMG:  Solving for p, Initial residual = 0.306276, Final residual = 9.91805e-07, No Iterations 479
time step continuity errors : sum local = 4.62697e-14, global = 6.80888e-20, cumulative = 2.05286e-19
Pressure gradient source: uncorrected Ubar = 0.389999, pressure gradient = 0.00410086
smoothSolver:  Solving for epsilon, Initial residual = 0.00204361, Final residual = 6.24966e-06, No Iterations 8
smoothSolver:  Solving for k, Initial residual = 0.00241872, Final residual = 6.09443e-06, No Iterations 10
ExecutionTime = 4.82 s  ClockTime = 5 s

Time = 0.3

Courant Number mean: 0.0233988 max: 0.028179
smoothSolver:  Solving for Ux, Initial residual = 0.000367524, Final residual = 7.43359e-06, No Iterations 6
smoothSolver:  Solving for Uy, Initial residual = 0.202765, Final residual = 7.46821e-06, No Iterations 25
smoothSolver:  Solving for Uz, Initial residual = 0.214987, Final residual = 9.49651e-06, No Iterations 26
Pressure gradient source: uncorrected Ubar = 0.390001, pressure gradient = 0.00408418
GAMG:  Solving for p, Initial residual = 0.410436, Final residual = 0.040698, No Iterations 23
time step continuity errors : sum local = 1.7039e-09, global = 1.62153e-19, cumulative = 3.67439e-19
Pressure gradient source: uncorrected Ubar = 0.39, pressure gradient = 0.00409555
[hyd37:105091] 2 more processes have sent help message help-mpi-btl-base.txt / btl:no-nics
[hyd37:105091] Set MCA parameter "orte_base_help_aggregate" to 0 to see all help / error messages
GAMG:  Solving for p, Initial residual = 0.400955, Final residual = 9.90994e-07, No Iterations 528
time step continuity errors : sum local = 2.88288e-14, global = 1.01518e-19, cumulative = 4.68957e-19
Pressure gradient source: uncorrected Ubar = 0.39, pressure gradient = 0.00409892
smoothSolver:  Solving for epsilon, Initial residual = 0.00113957, Final residual = 5.46461e-06, No Iterations 8
smoothSolver:  Solving for k, Initial residual = 0.00183322, Final residual = 9.42211e-06, No Iterations 9
ExecutionTime = 5.7 s  ClockTime = 6 s

Time = 0.35

Courant Number mean: 0.0233991 max: 0.0281786
smoothSolver:  Solving for Ux, Initial residual = 0.000301249, Final residual = 9.63743e-06, No Iterations 5
smoothSolver:  Solving for Uy, Initial residual = 0.145431, Final residual = 7.32953e-06, No Iterations 24
smoothSolver:  Solving for Uz, Initial residual = 0.180303, Final residual = 7.43613e-06, No Iterations 26
Pressure gradient source: uncorrected Ubar = 0.390001, pressure gradient = 0.00405396
GAMG:  Solving for p, Initial residual = 0.424077, Final residual = 0.0423446, No Iterations 21
time step continuity errors : sum local = 1.33213e-09, global = 6.3865e-20, cumulative = 5.32822e-19
Pressure gradient source: uncorrected Ubar = 0.390001, pressure gradient = 0.0040754
GAMG:  Solving for p, Initial residual = 0.279597, Final residual = 9.66383e-07, No Iterations 483
time step continuity errors : sum local = 3.08387e-14, global = 1.03506e-20, cumulative = 5.43173e-19
Pressure gradient source: uncorrected Ubar = 0.390001, pressure gradient = 0.00408035
smoothSolver:  Solving for epsilon, Initial residual = 0.000513471, Final residual = 7.48076e-06, No Iterations 7
smoothSolver:  Solving for k, Initial residual = 0.00146604, Final residual = 8.00428e-06, No Iterations 9
ExecutionTime = 6.51 s  ClockTime = 7 s

Time = 0.4

Courant Number mean: 0.0233993 max: 0.0281783
smoothSolver:  Solving for Ux, Initial residual = 0.000261097, Final residual = 8.62033e-06, No Iterations 5
smoothSolver:  Solving for Uy, Initial residual = 0.131711, Final residual = 9.49671e-06, No Iterations 23
smoothSolver:  Solving for Uz, Initial residual = 0.152208, Final residual = 9.01831e-06, No Iterations 25
Pressure gradient source: uncorrected Ubar = 0.390001, pressure gradient = 0.00404587
GAMG:  Solving for p, Initial residual = 0.36813, Final residual = 0.0347862, No Iterations 24
time step continuity errors : sum local = 9.9637e-10, global = 6.04759e-20, cumulative = 6.03649e-19
Pressure gradient source: uncorrected Ubar = 0.390001, pressure gradient = 0.00406359
GAMG:  Solving for p, Initial residual = 0.399614, Final residual = 9.97302e-07, No Iterations 511
time step continuity errors : sum local = 1.83027e-14, global = 9.89248e-20, cumulative = 7.02574e-19
Pressure gradient source: uncorrected Ubar = 0.39, pressure gradient = 0.00406813
smoothSolver:  Solving for epsilon, Initial residual = 0.000420884, Final residual = 5.90329e-06, No Iterations 7
smoothSolver:  Solving for k, Initial residual = 0.00124089, Final residual = 7.07772e-06, No Iterations 9
ExecutionTime = 7.4 s  ClockTime = 8 s

Time = 0.45

Courant Number mean: 0.0233994 max: 0.0281779
smoothSolver:  Solving for Ux, Initial residual = 0.000228778, Final residual = 8.50517e-06, No Iterations 5
smoothSolver:  Solving for Uy, Initial residual = 0.0944387, Final residual = 9.71311e-06, No Iterations 22
smoothSolver:  Solving for Uz, Initial residual = 0.114463, Final residual = 9.5654e-06, No Iterations 24
Pressure gradient source: uncorrected Ubar = 0.390001, pressure gradient = 0.00403834
GAMG:  Solving for p, Initial residual = 0.378986, Final residual = 0.0360777, No Iterations 22
time step continuity errors : sum local = 7.55927e-10, global = 1.95941e-19, cumulative = 8.98515e-19
Pressure gradient source: uncorrected Ubar = 0.39, pressure gradient = 0.00405466
GAMG:  Solving for p, Initial residual = 0.261652, Final residual = 9.69202e-07, No Iterations 477
time step continuity errors : sum local = 2.00399e-14, global = 1.09414e-19, cumulative = 1.00793e-18
Pressure gradient source: uncorrected Ubar = 0.39, pressure gradient = 0.00405916
smoothSolver:  Solving for epsilon, Initial residual = 0.000359757, Final residual = 8.9901e-06, No Iterations 6
smoothSolver:  Solving for k, Initial residual = 0.00107556, Final residual = 6.47894e-06, No Iterations 9
ExecutionTime = 8.2 s  ClockTime = 8 s

Time = 0.5

Courant Number mean: 0.0233996 max: 0.0281775
smoothSolver:  Solving for Ux, Initial residual = 0.000205221, Final residual = 8.81195e-06, No Iterations 5
smoothSolver:  Solving for Uy, Initial residual = 0.0821446, Final residual = 8.39556e-06, No Iterations 22
smoothSolver:  Solving for Uz, Initial residual = 0.0935235, Final residual = 7.95926e-06, No Iterations 24
Pressure gradient source: uncorrected Ubar = 0.390001, pressure gradient = 0.0040341
GAMG:  Solving for p, Initial residual = 0.349477, Final residual = 0.0348269, No Iterations 23
time step continuity errors : sum local = 6.21142e-10, global = 1.38967e-19, cumulative = 1.1469e-18
Pressure gradient source: uncorrected Ubar = 0.39, pressure gradient = 0.00404908
GAMG:  Solving for p, Initial residual = 0.290659, Final residual = 9.97426e-07, No Iterations 506
time step continuity errors : sum local = 1.47877e-14, global = 2.08443e-20, cumulative = 1.16774e-18
Pressure gradient source: uncorrected Ubar = 0.39, pressure gradient = 0.00405358
smoothSolver:  Solving for epsilon, Initial residual = 0.000307995, Final residual = 8.21993e-06, No Iterations 6
smoothSolver:  Solving for k, Initial residual = 0.000972511, Final residual = 9.5333e-06, No Iterations 8
ExecutionTime = 9.04 s  ClockTime = 9 s

Time = 0.55

Courant Number mean: 0.0233997 max: 0.0281771
smoothSolver:  Solving for Ux, Initial residual = 0.000189978, Final residual = 9.01331e-06, No Iterations 5
smoothSolver:  Solving for Uy, Initial residual = 0.0646975, Final residual = 9.23696e-06, No Iterations 21
smoothSolver:  Solving for Uz, Initial residual = 0.0721522, Final residual = 8.7772e-06, No Iterations 23
Pressure gradient source: uncorrected Ubar = 0.390001, pressure gradient = 0.00403113
GAMG:  Solving for p, Initial residual = 0.348491, Final residual = 0.0342583, No Iterations 22
time step continuity errors : sum local = 4.80944e-10, global = 2.86494e-19, cumulative = 1.45423e-18
Pressure gradient source: uncorrected Ubar = 0.39, pressure gradient = 0.00404531
GAMG:  Solving for p, Initial residual = 0.251556, Final residual = 9.66869e-07, No Iterations 475
time step continuity errors : sum local = 1.2925e-14, global = 1.14612e-19, cumulative = 1.56885e-18
Pressure gradient source: uncorrected Ubar = 0.39, pressure gradient = 0.00404979
smoothSolver:  Solving for epsilon, Initial residual = 0.000260513, Final residual = 7.46191e-06, No Iterations 6
smoothSolver:  Solving for k, Initial residual = 0.000875215, Final residual = 8.588e-06, No Iterations 8
ExecutionTime = 9.84 s  ClockTime = 10 s

Time = 0.6

Courant Number mean: 0.0233997 max: 0.0281768
smoothSolver:  Solving for Ux, Initial residual = 0.000177784, Final residual = 9.02993e-06, No Iterations 5
smoothSolver:  Solving for Uy, Initial residual = 0.0657896, Final residual = 8.85814e-06, No Iterations 21
smoothSolver:  Solving for Uz, Initial residual = 0.062038, Final residual = 7.37051e-06, No Iterations 23
Pressure gradient source: uncorrected Ubar = 0.390001, pressure gradient = 0.00402864
GAMG:  Solving for p, Initial residual = 0.336806, Final residual = 0.0334474, No Iterations 23
time step continuity errors : sum local = 3.86281e-10, global = 6.34916e-21, cumulative = 1.5752e-18
Pressure gradient source: uncorrected Ubar = 0.39, pressure gradient = 0.00404232
GAMG:  Solving for p, Initial residual = 0.251381, Final residual = 9.98326e-07, No Iterations 498
time step continuity errors : sum local = 1.07213e-14, global = 5.00558e-20, cumulative = 1.62525e-18
Pressure gradient source: uncorrected Ubar = 0.39, pressure gradient = 0.00404675
smoothSolver:  Solving for epsilon, Initial residual = 0.000229775, Final residual = 6.70014e-06, No Iterations 6
smoothSolver:  Solving for k, Initial residual = 0.000772465, Final residual = 7.77996e-06, No Iterations 8
ExecutionTime = 10.67 s  ClockTime = 11 s

Time = 0.65

Courant Number mean: 0.0233998 max: 0.0281765
smoothSolver:  Solving for Ux, Initial residual = 0.000166845, Final residual = 8.91935e-06, No Iterations 5
smoothSolver:  Solving for Uy, Initial residual = 0.0583309, Final residual = 7.35407e-06, No Iterations 21
smoothSolver:  Solving for Uz, Initial residual = 0.0516617, Final residual = 8.2136e-06, No Iterations 22
Pressure gradient source: uncorrected Ubar = 0.390001, pressure gradient = 0.00402658
GAMG:  Solving for p, Initial residual = 0.322986, Final residual = 0.0311653, No Iterations 22
time step continuity errors : sum local = 2.97877e-10, global = 1.27583e-19, cumulative = 1.75283e-18
Pressure gradient source: uncorrected Ubar = 0.39, pressure gradient = 0.00403982
GAMG:  Solving for p, Initial residual = 0.238025, Final residual = 9.85329e-07, No Iterations 451
time step continuity errors : sum local = 8.85924e-15, global = 1.48795e-19, cumulative = 1.90163e-18
Pressure gradient source: uncorrected Ubar = 0.39, pressure gradient = 0.00404418
smoothSolver:  Solving for epsilon, Initial residual = 0.000208212, Final residual = 6.00029e-06, No Iterations 6
smoothSolver:  Solving for k, Initial residual = 0.000681177, Final residual = 7.25557e-06, No Iterations 8
ExecutionTime = 11.43 s  ClockTime = 12 s

Time = 0.7

Courant Number mean: 0.0233998 max: 0.0281762
smoothSolver:  Solving for Ux, Initial residual = 0.000156594, Final residual = 8.72953e-06, No Iterations 5
smoothSolver:  Solving for Uy, Initial residual = 0.0606043, Final residual = 9.99213e-06, No Iterations 20
smoothSolver:  Solving for Uz, Initial residual = 0.0471651, Final residual = 9.8444e-06, No Iterations 21
Pressure gradient source: uncorrected Ubar = 0.390001, pressure gradient = 0.00402493
GAMG:  Solving for p, Initial residual = 0.316171, Final residual = 0.0308029, No Iterations 22
time step continuity errors : sum local = 2.36987e-10, global = 1.13063e-19, cumulative = 2.01469e-18
Pressure gradient source: uncorrected Ubar = 0.39, pressure gradient = 0.00403773
GAMG:  Solving for p, Initial residual = 0.250943, Final residual = 9.8788e-07, No Iterations 497
time step continuity errors : sum local = 6.74557e-15, global = 4.53632e-21, cumulative = 2.01923e-18
Pressure gradient source: uncorrected Ubar = 0.39, pressure gradient = 0.004042
smoothSolver:  Solving for epsilon, Initial residual = 0.000188769, Final residual = 8.99746e-06, No Iterations 5
smoothSolver:  Solving for k, Initial residual = 0.000611261, Final residual = 7.31639e-06, No Iterations 8
ExecutionTime = 12.26 s  ClockTime = 13 s

Time = 0.75

Courant Number mean: 0.0233999 max: 0.028176
smoothSolver:  Solving for Ux, Initial residual = 0.000146996, Final residual = 8.47794e-06, No Iterations 5
smoothSolver:  Solving for Uy, Initial residual = 0.0551318, Final residual = 8.70417e-06, No Iterations 20
smoothSolver:  Solving for Uz, Initial residual = 0.0409288, Final residual = 8.00554e-06, No Iterations 21
Pressure gradient source: uncorrected Ubar = 0.390001, pressure gradient = 0.00402368
GAMG:  Solving for p, Initial residual = 0.307005, Final residual = 0.0286105, No Iterations 22
time step continuity errors : sum local = 1.86965e-10, global = 7.03962e-20, cumulative = 2.08962e-18
Pressure gradient source: uncorrected Ubar = 0.39, pressure gradient = 0.00403603
GAMG:  Solving for p, Initial residual = 0.24802, Final residual = 9.73935e-07, No Iterations 455
time step continuity errors : sum local = 5.41782e-15, global = 1.40865e-19, cumulative = 2.23049e-18
Pressure gradient source: uncorrected Ubar = 0.39, pressure gradient = 0.00404019
smoothSolver:  Solving for epsilon, Initial residual = 0.000174818, Final residual = 8.30277e-06, No Iterations 5
smoothSolver:  Solving for k, Initial residual = 0.000561288, Final residual = 7.75539e-06, No Iterations 8
ExecutionTime = 13.02 s  ClockTime = 13 s

Time = 0.8

Courant Number mean: 0.0233999 max: 0.0281759
smoothSolver:  Solving for Ux, Initial residual = 0.000137845, Final residual = 8.18484e-06, No Iterations 5
smoothSolver:  Solving for Uy, Initial residual = 0.0546622, Final residual = 8.29723e-06, No Iterations 20
smoothSolver:  Solving for Uz, Initial residual = 0.0395598, Final residual = 7.19731e-06, No Iterations 21
Pressure gradient source: uncorrected Ubar = 0.390001, pressure gradient = 0.00402269
GAMG:  Solving for p, Initial residual = 0.330158, Final residual = 0.0309092, No Iterations 22
time step continuity errors : sum local = 1.57014e-10, global = 1.10346e-19, cumulative = 2.34084e-18
Pressure gradient source: uncorrected Ubar = 0.39, pressure gradient = 0.00403462
GAMG:  Solving for p, Initial residual = 0.249583, Final residual = 9.82891e-07, No Iterations 491
time step continuity errors : sum local = 4.65474e-15, global = 1.82305e-19, cumulative = 2.52314e-18
Pressure gradient source: uncorrected Ubar = 0.39, pressure gradient = 0.00403867
smoothSolver:  Solving for epsilon, Initial residual = 0.000165114, Final residual = 7.68341e-06, No Iterations 5
smoothSolver:  Solving for k, Initial residual = 0.000536982, Final residual = 8.22604e-06, No Iterations 8
ExecutionTime = 13.85 s  ClockTime = 14 s

Time = 0.85

Courant Number mean: 0.0233999 max: 0.0281758
smoothSolver:  Solving for Ux, Initial residual = 0.000129283, Final residual = 7.8749e-06, No Iterations 5
smoothSolver:  Solving for Uy, Initial residual = 0.0487717, Final residual = 9.96259e-06, No Iterations 19
smoothSolver:  Solving for Uz, Initial residual = 0.0357208, Final residual = 8.60721e-06, No Iterations 20
Pressure gradient source: uncorrected Ubar = 0.390001, pressure gradient = 0.00402191
GAMG:  Solving for p, Initial residual = 0.332485, Final residual = 0.0328421, No Iterations 20
time step continuity errors : sum local = 1.37133e-10, global = -5.21686e-20, cumulative = 2.47097e-18
Pressure gradient source: uncorrected Ubar = 0.39, pressure gradient = 0.00403344
GAMG:  Solving for p, Initial residual = 0.267195, Final residual = 9.64669e-07, No Iterations 473
time step continuity errors : sum local = 3.4831e-15, global = 1.43755e-19, cumulative = 2.61473e-18
Pressure gradient source: uncorrected Ubar = 0.39, pressure gradient = 0.00403738
smoothSolver:  Solving for epsilon, Initial residual = 0.000157204, Final residual = 7.15405e-06, No Iterations 5
smoothSolver:  Solving for k, Initial residual = 0.000534586, Final residual = 8.65923e-06, No Iterations 8
ExecutionTime = 14.66 s  ClockTime = 15 s

Time = 0.9

Courant Number mean: 0.0234 max: 0.0281757
smoothSolver:  Solving for Ux, Initial residual = 0.000121296, Final residual = 7.55218e-06, No Iterations 5
smoothSolver:  Solving for Uy, Initial residual = 0.0482926, Final residual = 9.78855e-06, No Iterations 19
smoothSolver:  Solving for Uz, Initial residual = 0.0356106, Final residual = 8.19912e-06, No Iterations 20
Pressure gradient source: uncorrected Ubar = 0.39, pressure gradient = 0.00402127
GAMG:  Solving for p, Initial residual = 0.370486, Final residual = 0.0367432, No Iterations 21
time step continuity errors : sum local = 1.23315e-10, global = 9.81395e-20, cumulative = 2.71287e-18
Pressure gradient source: uncorrected Ubar = 0.39, pressure gradient = 0.00403243
GAMG:  Solving for p, Initial residual = 0.281522, Final residual = 9.65241e-07, No Iterations 494
time step continuity errors : sum local = 3.00376e-15, global = -7.71228e-21, cumulative = 2.70515e-18
Pressure gradient source: uncorrected Ubar = 0.39, pressure gradient = 0.00403625
smoothSolver:  Solving for epsilon, Initial residual = 0.000150007, Final residual = 6.70459e-06, No Iterations 5
smoothSolver:  Solving for k, Initial residual = 0.00053891, Final residual = 9.04737e-06, No Iterations 8
ExecutionTime = 15.52 s  ClockTime = 16 s

Time = 0.95

Courant Number mean: 0.0234 max: 0.0281757
smoothSolver:  Solving for Ux, Initial residual = 0.000113738, Final residual = 7.22332e-06, No Iterations 5
smoothSolver:  Solving for Uy, Initial residual = 0.0465275, Final residual = 9.04238e-06, No Iterations 19
smoothSolver:  Solving for Uz, Initial residual = 0.0325757, Final residual = 7.36294e-06, No Iterations 20
Pressure gradient source: uncorrected Ubar = 0.39, pressure gradient = 0.00402077
GAMG:  Solving for p, Initial residual = 0.382922, Final residual = 0.0351524, No Iterations 20
time step continuity errors : sum local = 9.90737e-11, global = 4.96997e-20, cumulative = 2.75485e-18
Pressure gradient source: uncorrected Ubar = 0.39, pressure gradient = 0.00403156
GAMG:  Solving for p, Initial residual = 0.291447, Final residual = 9.9897e-07, No Iterations 469
time step continuity errors : sum local = 2.58302e-15, global = 6.78285e-20, cumulative = 2.82268e-18
Pressure gradient source: uncorrected Ubar = 0.39, pressure gradient = 0.00403527
smoothSolver:  Solving for epsilon, Initial residual = 0.000143143, Final residual = 6.33829e-06, No Iterations 5
smoothSolver:  Solving for k, Initial residual = 0.000543817, Final residual = 9.3876e-06, No Iterations 8
ExecutionTime = 16.33 s  ClockTime = 17 s

Time = 1

Courant Number mean: 0.0234 max: 0.0281758
smoothSolver:  Solving for Ux, Initial residual = 0.000106588, Final residual = 9.89076e-06, No Iterations 4
smoothSolver:  Solving for Uy, Initial residual = 0.0431795, Final residual = 8.37518e-06, No Iterations 19
smoothSolver:  Solving for Uz, Initial residual = 0.0325401, Final residual = 7.17771e-06, No Iterations 20
Pressure gradient source: uncorrected Ubar = 0.390001, pressure gradient = 0.0040065
GAMG:  Solving for p, Initial residual = 0.377263, Final residual = 0.0368846, No Iterations 20
time step continuity errors : sum local = 9.92851e-11, global = 5.95009e-20, cumulative = 2.88218e-18
Pressure gradient source: uncorrected Ubar = 0.39, pressure gradient = 0.00402299
GAMG:  Solving for p, Initial residual = 0.256438, Final residual = 9.80043e-07, No Iterations 485
time step continuity errors : sum local = 2.80253e-15, global = -1.59084e-20, cumulative = 2.86628e-18
Pressure gradient source: uncorrected Ubar = 0.39, pressure gradient = 0.00402803
smoothSolver:  Solving for epsilon, Initial residual = 0.000132555, Final residual = 9.95682e-06, No Iterations 4
smoothSolver:  Solving for k, Initial residual = 0.000546665, Final residual = 9.62257e-06, No Iterations 8
ExecutionTime = 17.17 s  ClockTime = 17 s

Time = 1.05

Courant Number mean: 0.0234 max: 0.0281758
smoothSolver:  Solving for Ux, Initial residual = 9.99539e-05, Final residual = 9.46758e-06, No Iterations 4
smoothSolver:  Solving for Uy, Initial residual = 0.0401556, Final residual = 7.60719e-06, No Iterations 19
smoothSolver:  Solving for Uz, Initial residual = 0.0305456, Final residual = 9.39073e-06, No Iterations 19
Pressure gradient source: uncorrected Ubar = 0.390001, pressure gradient = 0.00401045
GAMG:  Solving for p, Initial residual = 0.311782, Final residual = 0.0308227, No Iterations 18
time step continuity errors : sum local = 9.05375e-11, global = 8.63536e-20, cumulative = 2.95263e-18
Pressure gradient source: uncorrected Ubar = 0.39, pressure gradient = 0.00402335
GAMG:  Solving for p, Initial residual = 0.208229, Final residual = 9.80563e-07, No Iterations 439
time step continuity errors : sum local = 3.10624e-15, global = 4.34907e-20, cumulative = 2.99612e-18
Pressure gradient source: uncorrected Ubar = 0.39, pressure gradient = 0.00402798
smoothSolver:  Solving for epsilon, Initial residual = 0.000127153, Final residual = 9.74939e-06, No Iterations 4
smoothSolver:  Solving for k, Initial residual = 0.00055102, Final residual = 9.88292e-06, No Iterations 8
ExecutionTime = 17.94 s  ClockTime = 18 s

Time = 1.1

Courant Number mean: 0.0234 max: 0.0281759
smoothSolver:  Solving for Ux, Initial residual = 9.43056e-05, Final residual = 9.03945e-06, No Iterations 4
smoothSolver:  Solving for Uy, Initial residual = 0.0390408, Final residual = 7.28373e-06, No Iterations 19
smoothSolver:  Solving for Uz, Initial residual = 0.030774, Final residual = 9.56477e-06, No Iterations 19
Pressure gradient source: uncorrected Ubar = 0.390001, pressure gradient = 0.00401029
GAMG:  Solving for p, Initial residual = 0.289831, Final residual = 0.0285753, No Iterations 19
time step continuity errors : sum local = 8.66437e-11, global = 2.54164e-20, cumulative = 3.02154e-18
Pressure gradient source: uncorrected Ubar = 0.39, pressure gradient = 0.00402307
GAMG:  Solving for p, Initial residual = 0.200601, Final residual = 9.82517e-07, No Iterations 436
time step continuity errors : sum local = 3.06896e-15, global = 7.43379e-20, cumulative = 3.09587e-18
Pressure gradient source: uncorrected Ubar = 0.39, pressure gradient = 0.00402761
smoothSolver:  Solving for epsilon, Initial residual = 0.000122164, Final residual = 9.50153e-06, No Iterations 4
smoothSolver:  Solving for k, Initial residual = 0.000553139, Final residual = 6.88901e-06, No Iterations 9
ExecutionTime = 18.69 s  ClockTime = 19 s

Time = 1.15

Courant Number mean: 0.0234 max: 0.028176
smoothSolver:  Solving for Ux, Initial residual = 8.91402e-05, Final residual = 8.62706e-06, No Iterations 4
smoothSolver:  Solving for Uy, Initial residual = 0.0345245, Final residual = 9.14392e-06, No Iterations 18
smoothSolver:  Solving for Uz, Initial residual = 0.0285875, Final residual = 9.70466e-06, No Iterations 19
Pressure gradient source: uncorrected Ubar = 0.390001, pressure gradient = 0.00401049
GAMG:  Solving for p, Initial residual = 0.267765, Final residual = 0.0253371, No Iterations 18
time step continuity errors : sum local = 7.98782e-11, global = 1.15514e-19, cumulative = 3.21139e-18
Pressure gradient source: uncorrected Ubar = 0.39, pressure gradient = 0.00402295
GAMG:  Solving for p, Initial residual = 0.199777, Final residual = 9.7137e-07, No Iterations 459
time step continuity errors : sum local = 2.96926e-15, global = 1.42862e-19, cumulative = 3.35425e-18
Pressure gradient source: uncorrected Ubar = 0.39, pressure gradient = 0.00402738
smoothSolver:  Solving for epsilon, Initial residual = 0.000117554, Final residual = 9.2978e-06, No Iterations 4
smoothSolver:  Solving for k, Initial residual = 0.000553272, Final residual = 6.95878e-06, No Iterations 9
ExecutionTime = 19.47 s  ClockTime = 20 s

Time = 1.2

Courant Number mean: 0.0234 max: 0.0281762
smoothSolver:  Solving for Ux, Initial residual = 8.44381e-05, Final residual = 8.24013e-06, No Iterations 4
smoothSolver:  Solving for Uy, Initial residual = 0.0345308, Final residual = 9.0525e-06, No Iterations 18
smoothSolver:  Solving for Uz, Initial residual = 0.0286511, Final residual = 9.74327e-06, No Iterations 19
Pressure gradient source: uncorrected Ubar = 0.390001, pressure gradient = 0.00401075
GAMG:  Solving for p, Initial residual = 0.263663, Final residual = 0.024632, No Iterations 18
time step continuity errors : sum local = 7.63062e-11, global = 5.36176e-20, cumulative = 3.40787e-18
Pressure gradient source: uncorrected Ubar = 0.39, pressure gradient = 0.00402292
GAMG:  Solving for p, Initial residual = 0.184999, Final residual = 9.74531e-07, No Iterations 326
time step continuity errors : sum local = 3.10048e-15, global = 1.69032e-19, cumulative = 3.5769e-18
Pressure gradient source: uncorrected Ubar = 0.39, pressure gradient = 0.00402726
smoothSolver:  Solving for epsilon, Initial residual = 0.000112982, Final residual = 9.04161e-06, No Iterations 4
smoothSolver:  Solving for k, Initial residual = 0.000550874, Final residual = 6.96999e-06, No Iterations 9
ExecutionTime = 20.05 s  ClockTime = 20 s

Time = 1.25

Courant Number mean: 0.0234 max: 0.0281764
smoothSolver:  Solving for Ux, Initial residual = 8.00939e-05, Final residual = 7.88354e-06, No Iterations 4
smoothSolver:  Solving for Uy, Initial residual = 0.0333636, Final residual = 8.41843e-06, No Iterations 18
smoothSolver:  Solving for Uz, Initial residual = 0.0268805, Final residual = 7.26673e-06, No Iterations 20
Pressure gradient source: uncorrected Ubar = 0.39, pressure gradient = 0.00401108
GAMG:  Solving for p, Initial residual = 0.249806, Final residual = 0.0244765, No Iterations 18
time step continuity errors : sum local = 7.80885e-11, global = 1.16093e-19, cumulative = 3.69299e-18
Pressure gradient source: uncorrected Ubar = 0.39, pressure gradient = 0.00402298
GAMG:  Solving for p, Initial residual = 0.185156, Final residual = 9.76708e-07, No Iterations 461
time step continuity errors : sum local = 3.0189e-15, global = 1.39846e-19, cumulative = 3.83284e-18
Pressure gradient source: uncorrected Ubar = 0.39, pressure gradient = 0.00402722
smoothSolver:  Solving for epsilon, Initial residual = 0.000108561, Final residual = 8.75083e-06, No Iterations 4
smoothSolver:  Solving for k, Initial residual = 0.00054589, Final residual = 6.93093e-06, No Iterations 9
ExecutionTime = 20.85 s  ClockTime = 21 s

Time = 1.3

Courant Number mean: 0.0234 max: 0.0281766
smoothSolver:  Solving for Ux, Initial residual = 7.60576e-05, Final residual = 7.54663e-06, No Iterations 4
smoothSolver:  Solving for Uy, Initial residual = 0.0321796, Final residual = 8.52016e-06, No Iterations 18
smoothSolver:  Solving for Uz, Initial residual = 0.0269532, Final residual = 7.35668e-06, No Iterations 20
Pressure gradient source: uncorrected Ubar = 0.39, pressure gradient = 0.00401146
GAMG:  Solving for p, Initial residual = 0.250704, Final residual = 0.0238458, No Iterations 18
time step continuity errors : sum local = 7.52226e-11, global = 9.8615e-20, cumulative = 3.93145e-18
Pressure gradient source: uncorrected Ubar = 0.39, pressure gradient = 0.0040231
GAMG:  Solving for p, Initial residual = 0.172683, Final residual = 9.99358e-07, No Iterations 384
time step continuity errors : sum local = 3.31747e-15, global = 1.25098e-19, cumulative = 4.05655e-18
Pressure gradient source: uncorrected Ubar = 0.39, pressure gradient = 0.00402725
smoothSolver:  Solving for epsilon, Initial residual = 0.000104237, Final residual = 8.43865e-06, No Iterations 4
smoothSolver:  Solving for k, Initial residual = 0.000538617, Final residual = 6.84943e-06, No Iterations 9
ExecutionTime = 21.52 s  ClockTime = 22 s

Time = 1.35

Courant Number mean: 0.0234 max: 0.0281769
smoothSolver:  Solving for Ux, Initial residual = 7.24244e-05, Final residual = 7.23212e-06, No Iterations 4
smoothSolver:  Solving for Uy, Initial residual = 0.0319449, Final residual = 7.98115e-06, No Iterations 18
smoothSolver:  Solving for Uz, Initial residual = 0.0249112, Final residual = 7.54186e-06, No Iterations 20
Pressure gradient source: uncorrected Ubar = 0.39, pressure gradient = 0.00401187
GAMG:  Solving for p, Initial residual = 0.234059, Final residual = 0.0226343, No Iterations 18
time step continuity errors : sum local = 7.45503e-11, global = 1.25431e-19, cumulative = 4.18198e-18
Pressure gradient source: uncorrected Ubar = 0.39, pressure gradient = 0.00402328
GAMG:  Solving for p, Initial residual = 0.174335, Final residual = 9.98834e-07, No Iterations 471
time step continuity errors : sum local = 3.1745e-15, global = 1.24172e-19, cumulative = 4.30615e-18
Pressure gradient source: uncorrected Ubar = 0.39, pressure gradient = 0.00402734
smoothSolver:  Solving for epsilon, Initial residual = 9.98992e-05, Final residual = 8.10178e-06, No Iterations 4
smoothSolver:  Solving for k, Initial residual = 0.000529635, Final residual = 9.8305e-06, No Iterations 8
ExecutionTime = 22.32 s  ClockTime = 23 s

Time = 1.4

Courant Number mean: 0.0234 max: 0.0281772
smoothSolver:  Solving for Ux, Initial residual = 6.91301e-05, Final residual = 6.94764e-06, No Iterations 4
smoothSolver:  Solving for Uy, Initial residual = 0.0330548, Final residual = 8.37689e-06, No Iterations 18
smoothSolver:  Solving for Uz, Initial residual = 0.0253252, Final residual = 7.6777e-06, No Iterations 20
Pressure gradient source: uncorrected Ubar = 0.39, pressure gradient = 0.0040123
GAMG:  Solving for p, Initial residual = 0.239479, Final residual = 0.0233914, No Iterations 18
time step continuity errors : sum local = 7.50278e-11, global = 3.28708e-20, cumulative = 4.33903e-18
Pressure gradient source: uncorrected Ubar = 0.39, pressure gradient = 0.0040235
GAMG:  Solving for p, Initial residual = 0.163856, Final residual = 9.8867e-07, No Iterations 416
time step continuity errors : sum local = 3.33647e-15, global = 4.21496e-20, cumulative = 4.38118e-18
Pressure gradient source: uncorrected Ubar = 0.39, pressure gradient = 0.00402747
smoothSolver:  Solving for epsilon, Initial residual = 9.54817e-05, Final residual = 7.69649e-06, No Iterations 4
smoothSolver:  Solving for k, Initial residual = 0.000518602, Final residual = 9.59726e-06, No Iterations 8
ExecutionTime = 23.04 s  ClockTime = 23 s

Time = 1.45

Courant Number mean: 0.0234 max: 0.0281775
smoothSolver:  Solving for Ux, Initial residual = 6.61199e-05, Final residual = 9.66495e-06, No Iterations 3
smoothSolver:  Solving for Uy, Initial residual = 0.0374333, Final residual = 8.70248e-06, No Iterations 18
smoothSolver:  Solving for Uz, Initial residual = 0.0231698, Final residual = 7.73079e-06, No Iterations 20
Pressure gradient source: uncorrected Ubar = 0.390001, pressure gradient = 0.003997
GAMG:  Solving for p, Initial residual = 0.237803, Final residual = 0.0236051, No Iterations 19
time step continuity errors : sum local = 7.95121e-11, global = 5.61387e-20, cumulative = 4.43731e-18
Pressure gradient source: uncorrected Ubar = 0.39, pressure gradient = 0.00401508
GAMG:  Solving for p, Initial residual = 0.178027, Final residual = 9.88543e-07, No Iterations 432
time step continuity errors : sum local = 3.25327e-15, global = -2.30884e-20, cumulative = 4.41423e-18
Pressure gradient source: uncorrected Ubar = 0.39, pressure gradient = 0.00402075
smoothSolver:  Solving for epsilon, Initial residual = 8.8933e-05, Final residual = 7.3101e-06, No Iterations 4
smoothSolver:  Solving for k, Initial residual = 0.000504512, Final residual = 9.28109e-06, No Iterations 8
ExecutionTime = 23.79 s  ClockTime = 24 s

Time = 1.5

Courant Number mean: 0.0234001 max: 0.0281778
smoothSolver:  Solving for Ux, Initial residual = 6.29876e-05, Final residual = 9.38722e-06, No Iterations 3
smoothSolver:  Solving for Uy, Initial residual = 0.0374959, Final residual = 8.85747e-06, No Iterations 18
smoothSolver:  Solving for Uz, Initial residual = 0.0236685, Final residual = 7.52377e-06, No Iterations 20
Pressure gradient source: uncorrected Ubar = 0.390001, pressure gradient = 0.0040014
GAMG:  Solving for p, Initial residual = 0.232544, Final residual = 0.0229201, No Iterations 19
time step continuity errors : sum local = 7.66532e-11, global = 4.51596e-21, cumulative = 4.41874e-18
Pressure gradient source: uncorrected Ubar = 0.39, pressure gradient = 0.00401609
GAMG:  Solving for p, Initial residual = 0.168196, Final residual = 9.92268e-07, No Iterations 389
time step continuity errors : sum local = 3.39007e-15, global = 3.98482e-20, cumulative = 4.45859e-18
Pressure gradient source: uncorrected Ubar = 0.39, pressure gradient = 0.00402143
smoothSolver:  Solving for epsilon, Initial residual = 8.39965e-05, Final residual = 6.92572e-06, No Iterations 4
smoothSolver:  Solving for k, Initial residual = 0.000490255, Final residual = 8.94954e-06, No Iterations 8
ExecutionTime = 24.47 s  ClockTime = 25 s

Time = 1.55

Courant Number mean: 0.0234001 max: 0.0281782
smoothSolver:  Solving for Ux, Initial residual = 6.06778e-05, Final residual = 9.09167e-06, No Iterations 3
smoothSolver:  Solving for Uy, Initial residual = 0.0411439, Final residual = 9.74552e-06, No Iterations 18
smoothSolver:  Solving for Uz, Initial residual = 0.021547, Final residual = 7.46226e-06, No Iterations 20
Pressure gradient source: uncorrected Ubar = 0.390001, pressure gradient = 0.00400173
GAMG:  Solving for p, Initial residual = 0.217948, Final residual = 0.0216544, No Iterations 19
time step continuity errors : sum local = 7.44872e-11, global = 6.64873e-20, cumulative = 4.52508e-18
Pressure gradient source: uncorrected Ubar = 0.39, pressure gradient = 0.00401646
GAMG:  Solving for p, Initial residual = 0.167085, Final residual = 9.97668e-07, No Iterations 444
time step continuity errors : sum local = 3.35554e-15, global = 1.81054e-20, cumulative = 4.54318e-18
Pressure gradient source: uncorrected Ubar = 0.39, pressure gradient = 0.00402176
smoothSolver:  Solving for epsilon, Initial residual = 7.9666e-05, Final residual = 6.53873e-06, No Iterations 4
smoothSolver:  Solving for k, Initial residual = 0.000475631, Final residual = 8.60544e-06, No Iterations 8
ExecutionTime = 25.23 s  ClockTime = 26 s

Time = 1.6

Courant Number mean: 0.0234001 max: 0.0281785
smoothSolver:  Solving for Ux, Initial residual = 5.85081e-05, Final residual = 8.81745e-06, No Iterations 3
smoothSolver:  Solving for Uy, Initial residual = 0.0405378, Final residual = 9.33683e-06, No Iterations 18
smoothSolver:  Solving for Uz, Initial residual = 0.0211731, Final residual = 7.28917e-06, No Iterations 20
Pressure gradient source: uncorrected Ubar = 0.390001, pressure gradient = 0.00400229
GAMG:  Solving for p, Initial residual = 0.214767, Final residual = 0.0212084, No Iterations 18
time step continuity errors : sum local = 7.22871e-11, global = 4.05841e-20, cumulative = 4.58377e-18
Pressure gradient source: uncorrected Ubar = 0.39, pressure gradient = 0.00401689
GAMG:  Solving for p, Initial residual = 0.158523, Final residual = 9.75053e-07, No Iterations 418
time step continuity errors : sum local = 3.36436e-15, global = 1.68048e-20, cumulative = 4.60057e-18
Pressure gradient source: uncorrected Ubar = 0.39, pressure gradient = 0.00402213
smoothSolver:  Solving for epsilon, Initial residual = 7.57311e-05, Final residual = 6.15444e-06, No Iterations 4
smoothSolver:  Solving for k, Initial residual = 0.000460575, Final residual = 8.25284e-06, No Iterations 8
ExecutionTime = 25.93 s  ClockTime = 26 s

Time = 1.65

Courant Number mean: 0.0234001 max: 0.0281789
smoothSolver:  Solving for Ux, Initial residual = 5.6573e-05, Final residual = 8.57152e-06, No Iterations 3
smoothSolver:  Solving for Uy, Initial residual = 0.0408128, Final residual = 9.75644e-06, No Iterations 18
smoothSolver:  Solving for Uz, Initial residual = 0.0196782, Final residual = 7.43115e-06, No Iterations 20
Pressure gradient source: uncorrected Ubar = 0.390001, pressure gradient = 0.00400284
GAMG:  Solving for p, Initial residual = 0.209685, Final residual = 0.0201082, No Iterations 18
time step continuity errors : sum local = 6.98998e-11, global = 1.45322e-19, cumulative = 4.74589e-18
Pressure gradient source: uncorrected Ubar = 0.39, pressure gradient = 0.00401733
GAMG:  Solving for p, Initial residual = 0.161976, Final residual = 9.90227e-07, No Iterations 457
time step continuity errors : sum local = 3.34736e-15, global = -4.8e-21, cumulative = 4.74109e-18
Pressure gradient source: uncorrected Ubar = 0.39, pressure gradient = 0.00402251
smoothSolver:  Solving for epsilon, Initial residual = 7.21614e-05, Final residual = 9.99849e-06, No Iterations 3
smoothSolver:  Solving for k, Initial residual = 0.000447077, Final residual = 7.97452e-06, No Iterations 8
ExecutionTime = 26.69 s  ClockTime = 27 s

Time = 1.7

Courant Number mean: 0.0234001 max: 0.0281793
smoothSolver:  Solving for Ux, Initial residual = 5.47465e-05, Final residual = 8.31942e-06, No Iterations 3
smoothSolver:  Solving for Uy, Initial residual = 0.0379825, Final residual = 9.64537e-06, No Iterations 18
smoothSolver:  Solving for Uz, Initial residual = 0.0198552, Final residual = 7.46483e-06, No Iterations 20
Pressure gradient source: uncorrected Ubar = 0.390001, pressure gradient = 0.00400354
GAMG:  Solving for p, Initial residual = 0.215789, Final residual = 0.0214243, No Iterations 19
time step continuity errors : sum local = 7.3566e-11, global = 1.14839e-19, cumulative = 4.85593e-18
Pressure gradient source: uncorrected Ubar = 0.39, pressure gradient = 0.00401786
GAMG:  Solving for p, Initial residual = 0.160863, Final residual = 9.84959e-07, No Iterations 435
time step continuity errors : sum local = 3.40567e-15, global = 3.13633e-20, cumulative = 4.8873e-18
Pressure gradient source: uncorrected Ubar = 0.39, pressure gradient = 0.00402298
smoothSolver:  Solving for epsilon, Initial residual = 7.03771e-05, Final residual = 9.74138e-06, No Iterations 3
smoothSolver:  Solving for k, Initial residual = 0.000435205, Final residual = 7.75129e-06, No Iterations 8
ExecutionTime = 27.42 s  ClockTime = 28 s

Time = 1.75

Courant Number mean: 0.0234001 max: 0.0281797
smoothSolver:  Solving for Ux, Initial residual = 5.30851e-05, Final residual = 8.08862e-06, No Iterations 3
smoothSolver:  Solving for Uy, Initial residual = 0.0380709, Final residual = 7.37967e-06, No Iterations 19
smoothSolver:  Solving for Uz, Initial residual = 0.0179607, Final residual = 7.48355e-06, No Iterations 20
Pressure gradient source: uncorrected Ubar = 0.390001, pressure gradient = 0.00400416
GAMG:  Solving for p, Initial residual = 0.209797, Final residual = 0.0209415, No Iterations 19
time step continuity errors : sum local = 7.34752e-11, global = 2.16653e-19, cumulative = 5.10395e-18
Pressure gradient source: uncorrected Ubar = 0.39, pressure gradient = 0.00401837
GAMG:  Solving for p, Initial residual = 0.163269, Final residual = 9.8691e-07, No Iterations 438
time step continuity errors : sum local = 3.38625e-15, global = 1.6826e-19, cumulative = 5.27221e-18
Pressure gradient source: uncorrected Ubar = 0.39, pressure gradient = 0.00402342
smoothSolver:  Solving for epsilon, Initial residual = 6.79915e-05, Final residual = 9.40134e-06, No Iterations 3
smoothSolver:  Solving for k, Initial residual = 0.000422423, Final residual = 7.4876e-06, No Iterations 8
ExecutionTime = 28.15 s  ClockTime = 28 s

Time = 1.8

Courant Number mean: 0.0234001 max: 0.0281801
smoothSolver:  Solving for Ux, Initial residual = 5.16608e-05, Final residual = 7.88458e-06, No Iterations 3
smoothSolver:  Solving for Uy, Initial residual = 0.0351227, Final residual = 8.99654e-06, No Iterations 18
smoothSolver:  Solving for Uz, Initial residual = 0.0173181, Final residual = 9.56611e-06, No Iterations 19
Pressure gradient source: uncorrected Ubar = 0.390001, pressure gradient = 0.00400477
GAMG:  Solving for p, Initial residual = 0.206014, Final residual = 0.0199464, No Iterations 20
time step continuity errors : sum local = 6.89658e-11, global = 2.12104e-19, cumulative = 5.48431e-18
Pressure gradient source: uncorrected Ubar = 0.39, pressure gradient = 0.00401887
GAMG:  Solving for p, Initial residual = 0.152161, Final residual = 9.68652e-07, No Iterations 426
time step continuity errors : sum local = 3.52281e-15, global = 9.40462e-20, cumulative = 5.57836e-18
Pressure gradient source: uncorrected Ubar = 0.39, pressure gradient = 0.00402386
smoothSolver:  Solving for epsilon, Initial residual = 6.53115e-05, Final residual = 9.01828e-06, No Iterations 3
smoothSolver:  Solving for k, Initial residual = 0.000408868, Final residual = 7.19507e-06, No Iterations 8
ExecutionTime = 28.87 s  ClockTime = 29 s

Time = 1.85

Courant Number mean: 0.0234001 max: 0.0281805
smoothSolver:  Solving for Ux, Initial residual = 5.03818e-05, Final residual = 7.70048e-06, No Iterations 3
smoothSolver:  Solving for Uy, Initial residual = 0.0339712, Final residual = 9.15951e-06, No Iterations 18
smoothSolver:  Solving for Uz, Initial residual = 0.0157851, Final residual = 9.39217e-06, No Iterations 19
Pressure gradient source: uncorrected Ubar = 0.390001, pressure gradient = 0.00400536
GAMG:  Solving for p, Initial residual = 0.194188, Final residual = 0.0186598, No Iterations 18
time step continuity errors : sum local = 6.54917e-11, global = 3.08461e-20, cumulative = 5.60921e-18
Pressure gradient source: uncorrected Ubar = 0.39, pressure gradient = 0.00401935
GAMG:  Solving for p, Initial residual = 0.149885, Final residual = 9.73319e-07, No Iterations 459
time step continuity errors : sum local = 3.37029e-15, global = 1.25478e-19, cumulative = 5.73468e-18
Pressure gradient source: uncorrected Ubar = 0.39, pressure gradient = 0.00402429
smoothSolver:  Solving for epsilon, Initial residual = 6.25642e-05, Final residual = 8.59907e-06, No Iterations 3
smoothSolver:  Solving for k, Initial residual = 0.000394993, Final residual = 6.88021e-06, No Iterations 8
ExecutionTime = 29.63 s  ClockTime = 30 s

Time = 1.9

Courant Number mean: 0.0234001 max: 0.0281809
smoothSolver:  Solving for Ux, Initial residual = 4.92393e-05, Final residual = 7.53112e-06, No Iterations 3
smoothSolver:  Solving for Uy, Initial residual = 0.0321351, Final residual = 8.91775e-06, No Iterations 18
smoothSolver:  Solving for Uz, Initial residual = 0.0163758, Final residual = 9.3747e-06, No Iterations 19
Pressure gradient source: uncorrected Ubar = 0.390001, pressure gradient = 0.00400595
GAMG:  Solving for p, Initial residual = 0.198306, Final residual = 0.0191867, No Iterations 21
time step continuity errors : sum local = 6.63792e-11, global = -1.57979e-20, cumulative = 5.71889e-18
Pressure gradient source: uncorrected Ubar = 0.39, pressure gradient = 0.00401983
GAMG:  Solving for p, Initial residual = 0.149218, Final residual = 9.65032e-07, No Iterations 435
time step continuity errors : sum local = 3.43261e-15, global = 1.43003e-20, cumulative = 5.73319e-18
Pressure gradient source: uncorrected Ubar = 0.39, pressure gradient = 0.00402471
smoothSolver:  Solving for epsilon, Initial residual = 5.98735e-05, Final residual = 8.16185e-06, No Iterations 3
smoothSolver:  Solving for k, Initial residual = 0.00038085, Final residual = 9.64422e-06, No Iterations 7
ExecutionTime = 30.37 s  ClockTime = 31 s

Time = 1.95

Courant Number mean: 0.0234001 max: 0.0281814
smoothSolver:  Solving for Ux, Initial residual = 4.82577e-05, Final residual = 7.37985e-06, No Iterations 3
smoothSolver:  Solving for Uy, Initial residual = 0.030027, Final residual = 8.88592e-06, No Iterations 18
smoothSolver:  Solving for Uz, Initial residual = 0.013899, Final residual = 8.54405e-06, No Iterations 19
Pressure gradient source: uncorrected Ubar = 0.390001, pressure gradient = 0.0040065
GAMG:  Solving for p, Initial residual = 0.189135, Final residual = 0.0179861, No Iterations 20
time step continuity errors : sum local = 6.38878e-11, global = 9.13717e-20, cumulative = 5.82456e-18
Pressure gradient source: uncorrected Ubar = 0.39, pressure gradient = 0.00402028
GAMG:  Solving for p, Initial residual = 0.145479, Final residual = 9.83626e-07, No Iterations 443
time step continuity errors : sum local = 3.50302e-15, global = 4.74359e-20, cumulative = 5.87199e-18
Pressure gradient source: uncorrected Ubar = 0.39, pressure gradient = 0.00402511
smoothSolver:  Solving for epsilon, Initial residual = 5.72467e-05, Final residual = 7.66908e-06, No Iterations 3
smoothSolver:  Solving for k, Initial residual = 0.000366363, Final residual = 9.12245e-06, No Iterations 7
ExecutionTime = 31.11 s  ClockTime = 31 s

Time = 2

Courant Number mean: 0.0234001 max: 0.0281818
smoothSolver:  Solving for Ux, Initial residual = 4.74132e-05, Final residual = 7.23991e-06, No Iterations 3
smoothSolver:  Solving for Uy, Initial residual = 0.0246716, Final residual = 7.49222e-06, No Iterations 18
smoothSolver:  Solving for Uz, Initial residual = 0.0142377, Final residual = 8.31503e-06, No Iterations 19
Pressure gradient source: uncorrected Ubar = 0.390001, pressure gradient = 0.00400702
GAMG:  Solving for p, Initial residual = 0.18101, Final residual = 0.0179429, No Iterations 19
time step continuity errors : sum local = 6.49341e-11, global = 1.17925e-20, cumulative = 5.88379e-18
Pressure gradient source: uncorrected Ubar = 0.39, pressure gradient = 0.0040207
GAMG:  Solving for p, Initial residual = 0.144182, Final residual = 9.8239e-07, No Iterations 451
time step continuity errors : sum local = 3.46778e-15, global = -7.10919e-20, cumulative = 5.81269e-18
Pressure gradient source: uncorrected Ubar = 0.39, pressure gradient = 0.00402549
smoothSolver:  Solving for epsilon, Initial residual = 5.47993e-05, Final residual = 7.19384e-06, No Iterations 3
smoothSolver:  Solving for k, Initial residual = 0.000352238, Final residual = 8.61337e-06, No Iterations 7
ExecutionTime = 31.88 s  ClockTime = 32 s

Time = 2.05

Courant Number mean: 0.0234001 max: 0.0281823
smoothSolver:  Solving for Ux, Initial residual = 4.67039e-05, Final residual = 7.10962e-06, No Iterations 3
smoothSolver:  Solving for Uy, Initial residual = 0.026533, Final residual = 8.74691e-06, No Iterations 18
smoothSolver:  Solving for Uz, Initial residual = 0.0132431, Final residual = 8.19829e-06, No Iterations 19
Pressure gradient source: uncorrected Ubar = 0.390001, pressure gradient = 0.00400754
GAMG:  Solving for p, Initial residual = 0.183017, Final residual = 0.0169194, No Iterations 22
time step continuity errors : sum local = 6.09048e-11, global = 2.289e-20, cumulative = 5.83558e-18
Pressure gradient source: uncorrected Ubar = 0.39, pressure gradient = 0.00402112
GAMG:  Solving for p, Initial residual = 0.139922, Final residual = 9.76463e-07, No Iterations 438
time step continuity errors : sum local = 3.60294e-15, global = -2.46958e-20, cumulative = 5.81089e-18
Pressure gradient source: uncorrected Ubar = 0.39, pressure gradient = 0.00402585
smoothSolver:  Solving for epsilon, Initial residual = 5.24912e-05, Final residual = 6.75103e-06, No Iterations 3
smoothSolver:  Solving for k, Initial residual = 0.000338377, Final residual = 8.12091e-06, No Iterations 7
ExecutionTime = 32.62 s  ClockTime = 33 s

Time = 2.1

Courant Number mean: 0.0234001 max: 0.0281827
smoothSolver:  Solving for Ux, Initial residual = 4.6166e-05, Final residual = 6.98942e-06, No Iterations 3
smoothSolver:  Solving for Uy, Initial residual = 0.0228268, Final residual = 7.83236e-06, No Iterations 18
smoothSolver:  Solving for Uz, Initial residual = 0.0128608, Final residual = 7.41135e-06, No Iterations 19
Pressure gradient source: uncorrected Ubar = 0.390001, pressure gradient = 0.00400802
GAMG:  Solving for p, Initial residual = 0.174287, Final residual = 0.0166901, No Iterations 20
time step continuity errors : sum local = 6.1052e-11, global = 6.15704e-20, cumulative = 5.87246e-18
Pressure gradient source: uncorrected Ubar = 0.39, pressure gradient = 0.0040215
GAMG:  Solving for p, Initial residual = 0.141076, Final residual = 9.72696e-07, No Iterations 442
time step continuity errors : sum local = 3.50795e-15, global = 1.96889e-20, cumulative = 5.89215e-18
Pressure gradient source: uncorrected Ubar = 0.39, pressure gradient = 0.00402618
smoothSolver:  Solving for epsilon, Initial residual = 5.02625e-05, Final residual = 6.34153e-06, No Iterations 3
smoothSolver:  Solving for k, Initial residual = 0.000324878, Final residual = 7.646e-06, No Iterations 7
ExecutionTime = 33.36 s  ClockTime = 34 s

Time = 2.15

Courant Number mean: 0.0234001 max: 0.0281832
smoothSolver:  Solving for Ux, Initial residual = 4.57313e-05, Final residual = 6.87666e-06, No Iterations 3
smoothSolver:  Solving for Uy, Initial residual = 0.0245996, Final residual = 8.68648e-06, No Iterations 18
smoothSolver:  Solving for Uz, Initial residual = 0.0121362, Final residual = 7.49719e-06, No Iterations 19
Pressure gradient source: uncorrected Ubar = 0.390001, pressure gradient = 0.00400848
GAMG:  Solving for p, Initial residual = 0.172615, Final residual = 0.016499, No Iterations 20
time step continuity errors : sum local = 6.0526e-11, global = 1.06144e-19, cumulative = 5.99829e-18
Pressure gradient source: uncorrected Ubar = 0.39, pressure gradient = 0.00402186
GAMG:  Solving for p, Initial residual = 0.130688, Final residual = 9.77062e-07, No Iterations 448
time step continuity errors : sum local = 3.66719e-15, global = 2.2664e-20, cumulative = 6.02096e-18
Pressure gradient source: uncorrected Ubar = 0.39, pressure gradient = 0.00402649
smoothSolver:  Solving for epsilon, Initial residual = 4.81431e-05, Final residual = 5.95675e-06, No Iterations 3
smoothSolver:  Solving for k, Initial residual = 0.000312003, Final residual = 7.18961e-06, No Iterations 7
ExecutionTime = 34.11 s  ClockTime = 34 s

Time = 2.2

Courant Number mean: 0.0234001 max: 0.0281837
smoothSolver:  Solving for Ux, Initial residual = 4.5408e-05, Final residual = 6.77096e-06, No Iterations 3
smoothSolver:  Solving for Uy, Initial residual = 0.023691, Final residual = 9.10197e-06, No Iterations 18
smoothSolver:  Solving for Uz, Initial residual = 0.0124496, Final residual = 9.92768e-06, No Iterations 18
Pressure gradient source: uncorrected Ubar = 0.390001, pressure gradient = 0.00400892
GAMG:  Solving for p, Initial residual = 0.167258, Final residual = 0.0157685, No Iterations 20
time step continuity errors : sum local = 5.92632e-11, global = 9.30805e-20, cumulative = 6.11404e-18
Pressure gradient source: uncorrected Ubar = 0.39, pressure gradient = 0.00402221
GAMG:  Solving for p, Initial residual = 0.137231, Final residual = 9.85487e-07, No Iterations 444
time step continuity errors : sum local = 3.60327e-15, global = 1.02938e-19, cumulative = 6.21697e-18
Pressure gradient source: uncorrected Ubar = 0.39, pressure gradient = 0.00402679
smoothSolver:  Solving for epsilon, Initial residual = 4.61555e-05, Final residual = 5.59317e-06, No Iterations 3
smoothSolver:  Solving for k, Initial residual = 0.000299593, Final residual = 6.75269e-06, No Iterations 7
ExecutionTime = 34.85 s  ClockTime = 35 s

Time = 2.25

Courant Number mean: 0.0234001 max: 0.0281842
smoothSolver:  Solving for Ux, Initial residual = 4.51788e-05, Final residual = 6.66944e-06, No Iterations 3
smoothSolver:  Solving for Uy, Initial residual = 0.0247016, Final residual = 9.77661e-06, No Iterations 18
smoothSolver:  Solving for Uz, Initial residual = 0.0117205, Final residual = 9.91656e-06, No Iterations 18
Pressure gradient source: uncorrected Ubar = 0.390001, pressure gradient = 0.00400935
GAMG:  Solving for p, Initial residual = 0.16768, Final residual = 0.0161342, No Iterations 22
time step continuity errors : sum local = 6.00719e-11, global = 1.03557e-19, cumulative = 6.32053e-18
Pressure gradient source: uncorrected Ubar = 0.39, pressure gradient = 0.00402254
GAMG:  Solving for p, Initial residual = 0.129576, Final residual = 9.69552e-07, No Iterations 430
time step continuity errors : sum local = 3.72266e-15, global = -1.39115e-20, cumulative = 6.30662e-18
Pressure gradient source: uncorrected Ubar = 0.39, pressure gradient = 0.00402707
smoothSolver:  Solving for epsilon, Initial residual = 4.43378e-05, Final residual = 9.92804e-06, No Iterations 2
smoothSolver:  Solving for k, Initial residual = 0.000289822, Final residual = 9.58456e-06, No Iterations 6
ExecutionTime = 35.57 s  ClockTime = 36 s

Time = 2.3

Courant Number mean: 0.0234001 max: 0.0281847
smoothSolver:  Solving for Ux, Initial residual = 4.49168e-05, Final residual = 6.54878e-06, No Iterations 3
smoothSolver:  Solving for Uy, Initial residual = 0.0213403, Final residual = 9.31051e-06, No Iterations 18
smoothSolver:  Solving for Uz, Initial residual = 0.0118526, Final residual = 9.61027e-06, No Iterations 18
Pressure gradient source: uncorrected Ubar = 0.390001, pressure gradient = 0.00400989
GAMG:  Solving for p, Initial residual = 0.165188, Final residual = 0.0159162, No Iterations 18
time step continuity errors : sum local = 6.13917e-11, global = 1.00659e-19, cumulative = 6.40728e-18
Pressure gradient source: uncorrected Ubar = 0.39, pressure gradient = 0.00402292
GAMG:  Solving for p, Initial residual = 0.134141, Final residual = 9.90532e-07, No Iterations 448
time step continuity errors : sum local = 3.67616e-15, global = 1.0713e-19, cumulative = 6.51441e-18
Pressure gradient source: uncorrected Ubar = 0.39, pressure gradient = 0.00402739
smoothSolver:  Solving for epsilon, Initial residual = 4.45056e-05, Final residual = 9.88487e-06, No Iterations 2
smoothSolver:  Solving for k, Initial residual = 0.000281799, Final residual = 9.1904e-06, No Iterations 6
ExecutionTime = 36.32 s  ClockTime = 37 s

Time = 2.35

Courant Number mean: 0.0234001 max: 0.0281852
smoothSolver:  Solving for Ux, Initial residual = 4.46644e-05, Final residual = 9.93306e-06, No Iterations 2
smoothSolver:  Solving for Uy, Initial residual = 0.025086, Final residual = 7.54667e-06, No Iterations 19
smoothSolver:  Solving for Uz, Initial residual = 0.0113635, Final residual = 9.94786e-06, No Iterations 18
Pressure gradient source: uncorrected Ubar = 0.390001, pressure gradient = 0.00399119
GAMG:  Solving for p, Initial residual = 0.216551, Final residual = 0.0213995, No Iterations 15
time step continuity errors : sum local = 7.88412e-11, global = 6.0082e-20, cumulative = 6.57449e-18
Pressure gradient source: uncorrected Ubar = 0.39, pressure gradient = 0.00401301
GAMG:  Solving for p, Initial residual = 0.152413, Final residual = 9.92836e-07, No Iterations 366
time step continuity errors : sum local = 3.99129e-15, global = 1.09453e-19, cumulative = 6.68394e-18
Pressure gradient source: uncorrected Ubar = 0.39, pressure gradient = 0.00402009
smoothSolver:  Solving for epsilon, Initial residual = 4.26344e-05, Final residual = 9.44981e-06, No Iterations 2
smoothSolver:  Solving for k, Initial residual = 0.000273159, Final residual = 8.84325e-06, No Iterations 6
ExecutionTime = 36.95 s  ClockTime = 37 s

Time = 2.4

Courant Number mean: 0.0234001 max: 0.0281856
smoothSolver:  Solving for Ux, Initial residual = 4.36436e-05, Final residual = 9.92649e-06, No Iterations 2
smoothSolver:  Solving for Uy, Initial residual = 0.0336245, Final residual = 7.8894e-06, No Iterations 20
smoothSolver:  Solving for Uz, Initial residual = 0.0146434, Final residual = 9.61557e-06, No Iterations 19
Pressure gradient source: uncorrected Ubar = 0.390001, pressure gradient = 0.00399522
GAMG:  Solving for p, Initial residual = 0.207988, Final residual = 0.0190813, No Iterations 14
time step continuity errors : sum local = 7.76911e-11, global = 9.31563e-20, cumulative = 6.7771e-18
Pressure gradient source: uncorrected Ubar = 0.39, pressure gradient = 0.00401387
GAMG:  Solving for p, Initial residual = 0.16931, Final residual = 9.68741e-07, No Iterations 318
time step continuity errors : sum local = 3.74669e-15, global = 8.28107e-20, cumulative = 6.85991e-18
Pressure gradient source: uncorrected Ubar = 0.39, pressure gradient = 0.00402067
smoothSolver:  Solving for epsilon, Initial residual = 4.09226e-05, Final residual = 9.0303e-06, No Iterations 2
smoothSolver:  Solving for k, Initial residual = 0.000264581, Final residual = 8.48138e-06, No Iterations 6
ExecutionTime = 37.5 s  ClockTime = 38 s

Time = 2.45

Courant Number mean: 0.0234001 max: 0.0281861
smoothSolver:  Solving for Ux, Initial residual = 4.35145e-05, Final residual = 9.81733e-06, No Iterations 2
smoothSolver:  Solving for Uy, Initial residual = 0.0288816, Final residual = 7.76594e-06, No Iterations 20
smoothSolver:  Solving for Uz, Initial residual = 0.0144257, Final residual = 7.22546e-06, No Iterations 20
Pressure gradient source: uncorrected Ubar = 0.390001, pressure gradient = 0.00399555
GAMG:  Solving for p, Initial residual = 0.233469, Final residual = 0.0216659, No Iterations 18
time step continuity errors : sum local = 8.62464e-11, global = 6.44269e-20, cumulative = 6.92434e-18
Pressure gradient source: uncorrected Ubar = 0.39, pressure gradient = 0.00401422
GAMG:  Solving for p, Initial residual = 0.168939, Final residual = 9.97902e-07, No Iterations 310
time step continuity errors : sum local = 4.24652e-15, global = 6.13145e-21, cumulative = 6.93047e-18
Pressure gradient source: uncorrected Ubar = 0.39, pressure gradient = 0.00402098
smoothSolver:  Solving for epsilon, Initial residual = 3.9256e-05, Final residual = 8.61888e-06, No Iterations 2
smoothSolver:  Solving for k, Initial residual = 0.000256013, Final residual = 8.10729e-06, No Iterations 6
ExecutionTime = 38.04 s  ClockTime = 38 s

Time = 2.5

Courant Number mean: 0.0234001 max: 0.0281866
smoothSolver:  Solving for Ux, Initial residual = 4.33452e-05, Final residual = 9.71998e-06, No Iterations 2
smoothSolver:  Solving for Uy, Initial residual = 0.0339794, Final residual = 8.60945e-06, No Iterations 20
smoothSolver:  Solving for Uz, Initial residual = 0.0150308, Final residual = 7.38395e-06, No Iterations 20
Pressure gradient source: uncorrected Ubar = 0.390001, pressure gradient = 0.00399596
GAMG:  Solving for p, Initial residual = 0.21851, Final residual = 0.019724, No Iterations 16
time step continuity errors : sum local = 8.43631e-11, global = 1.15504e-20, cumulative = 6.94202e-18
Pressure gradient source: uncorrected Ubar = 0.39, pressure gradient = 0.00401455
GAMG:  Solving for p, Initial residual = 0.180927, Final residual = 9.67661e-07, No Iterations 410
time step continuity errors : sum local = 3.84262e-15, global = 2.47076e-20, cumulative = 6.96673e-18
Pressure gradient source: uncorrected Ubar = 0.39, pressure gradient = 0.00402127
smoothSolver:  Solving for epsilon, Initial residual = 3.77265e-05, Final residual = 8.23657e-06, No Iterations 2
smoothSolver:  Solving for k, Initial residual = 0.000247851, Final residual = 7.71984e-06, No Iterations 6
ExecutionTime = 38.73 s  ClockTime = 39 s

Time = 2.55

Courant Number mean: 0.0234001 max: 0.0281871
smoothSolver:  Solving for Ux, Initial residual = 4.3165e-05, Final residual = 9.62104e-06, No Iterations 2
smoothSolver:  Solving for Uy, Initial residual = 0.0321534, Final residual = 9.18594e-06, No Iterations 20
smoothSolver:  Solving for Uz, Initial residual = 0.0144992, Final residual = 7.67337e-06, No Iterations 20
Pressure gradient source: uncorrected Ubar = 0.390001, pressure gradient = 0.00399641
GAMG:  Solving for p, Initial residual = 0.243405, Final residual = 0.023517, No Iterations 18
time step continuity errors : sum local = 9.55339e-11, global = 7.52801e-20, cumulative = 7.04201e-18
Pressure gradient source: uncorrected Ubar = 0.39, pressure gradient = 0.0040149
GAMG:  Solving for p, Initial residual = 0.171619, Final residual = 9.96047e-07, No Iterations 358
time step continuity errors : sum local = 4.39488e-15, global = 2.47903e-20, cumulative = 7.0668e-18
Pressure gradient source: uncorrected Ubar = 0.39, pressure gradient = 0.00402157
smoothSolver:  Solving for epsilon, Initial residual = 3.63769e-05, Final residual = 7.88598e-06, No Iterations 2
smoothSolver:  Solving for k, Initial residual = 0.000239796, Final residual = 7.32367e-06, No Iterations 6
ExecutionTime = 39.34 s  ClockTime = 40 s

Time = 2.6

Courant Number mean: 0.0234001 max: 0.0281875
smoothSolver:  Solving for Ux, Initial residual = 4.29849e-05, Final residual = 9.52937e-06, No Iterations 2
smoothSolver:  Solving for Uy, Initial residual = 0.033302, Final residual = 8.87357e-06, No Iterations 20
smoothSolver:  Solving for Uz, Initial residual = 0.0150545, Final residual = 7.73126e-06, No Iterations 20
Pressure gradient source: uncorrected Ubar = 0.390001, pressure gradient = 0.0039968
GAMG:  Solving for p, Initial residual = 0.230628, Final residual = 0.0208053, No Iterations 16
time step continuity errors : sum local = 9.10687e-11, global = 5.57515e-20, cumulative = 7.12255e-18
Pressure gradient source: uncorrected Ubar = 0.39, pressure gradient = 0.00401522
GAMG:  Solving for p, Initial residual = 0.190688, Final residual = 9.83074e-07, No Iterations 424
time step continuity errors : sum local = 3.95772e-15, global = 3.58403e-20, cumulative = 7.15839e-18
Pressure gradient source: uncorrected Ubar = 0.39, pressure gradient = 0.00402184
smoothSolver:  Solving for epsilon, Initial residual = 3.5225e-05, Final residual = 7.56883e-06, No Iterations 2
smoothSolver:  Solving for k, Initial residual = 0.000231738, Final residual = 6.92299e-06, No Iterations 6
ExecutionTime = 40.05 s  ClockTime = 40 s

Time = 2.65

Courant Number mean: 0.0234001 max: 0.028188
smoothSolver:  Solving for Ux, Initial residual = 4.27998e-05, Final residual = 9.43508e-06, No Iterations 2
smoothSolver:  Solving for Uy, Initial residual = 0.0328377, Final residual = 9.90065e-06, No Iterations 20
smoothSolver:  Solving for Uz, Initial residual = 0.0146245, Final residual = 8.092e-06, No Iterations 20
Pressure gradient source: uncorrected Ubar = 0.390001, pressure gradient = 0.00399723
GAMG:  Solving for p, Initial residual = 0.251385, Final residual = 0.025027, No Iterations 18
time step continuity errors : sum local = 1.04431e-10, global = 1.1683e-20, cumulative = 7.17007e-18
Pressure gradient source: uncorrected Ubar = 0.39, pressure gradient = 0.00401554
GAMG:  Solving for p, Initial residual = 0.177543, Final residual = 9.83881e-07, No Iterations 384
time step continuity errors : sum local = 4.38322e-15, global = -7.28685e-21, cumulative = 7.16279e-18
Pressure gradient source: uncorrected Ubar = 0.39, pressure gradient = 0.00402211
smoothSolver:  Solving for epsilon, Initial residual = 3.4234e-05, Final residual = 7.28304e-06, No Iterations 2
smoothSolver:  Solving for k, Initial residual = 0.000223819, Final residual = 9.98716e-06, No Iterations 5
ExecutionTime = 40.7 s  ClockTime = 41 s

Time = 2.7

Courant Number mean: 0.0234001 max: 0.0281885
smoothSolver:  Solving for Ux, Initial residual = 4.25994e-05, Final residual = 9.35106e-06, No Iterations 2
smoothSolver:  Solving for Uy, Initial residual = 0.0326838, Final residual = 9.00787e-06, No Iterations 20
smoothSolver:  Solving for Uz, Initial residual = 0.0151974, Final residual = 8.24943e-06, No Iterations 20
Pressure gradient source: uncorrected Ubar = 0.390001, pressure gradient = 0.00399757
GAMG:  Solving for p, Initial residual = 0.2368, Final residual = 0.0227761, No Iterations 16
time step continuity errors : sum local = 1.03153e-10, global = -8.05825e-21, cumulative = 7.15473e-18
Pressure gradient source: uncorrected Ubar = 0.39, pressure gradient = 0.00401581
GAMG:  Solving for p, Initial residual = 0.200059, Final residual = 9.87518e-07, No Iterations 440
time step continuity errors : sum local = 4.01435e-15, global = 4.1908e-20, cumulative = 7.19664e-18
Pressure gradient source: uncorrected Ubar = 0.39, pressure gradient = 0.00402233
smoothSolver:  Solving for epsilon, Initial residual = 3.33944e-05, Final residual = 7.02186e-06, No Iterations 2
smoothSolver:  Solving for k, Initial residual = 0.000215851, Final residual = 9.34499e-06, No Iterations 5
ExecutionTime = 41.43 s  ClockTime = 42 s

Time = 2.75

Courant Number mean: 0.0234001 max: 0.028189
smoothSolver:  Solving for Ux, Initial residual = 4.2393e-05, Final residual = 9.26235e-06, No Iterations 2
smoothSolver:  Solving for Uy, Initial residual = 0.0313476, Final residual = 7.282e-06, No Iterations 21
smoothSolver:  Solving for Uz, Initial residual = 0.0153479, Final residual = 8.71797e-06, No Iterations 20
Pressure gradient source: uncorrected Ubar = 0.390001, pressure gradient = 0.00399796
GAMG:  Solving for p, Initial residual = 0.267756, Final residual = 0.0242511, No Iterations 20
time step continuity errors : sum local = 1.02752e-10, global = 1.27427e-19, cumulative = 7.32406e-18
Pressure gradient source: uncorrected Ubar = 0.39, pressure gradient = 0.00401609
GAMG:  Solving for p, Initial residual = 0.188733, Final residual = 9.92916e-07, No Iterations 396
time step continuity errors : sum local = 4.53829e-15, global = -2.07508e-20, cumulative = 7.30331e-18
Pressure gradient source: uncorrected Ubar = 0.39, pressure gradient = 0.00402257
smoothSolver:  Solving for epsilon, Initial residual = 3.26991e-05, Final residual = 6.80266e-06, No Iterations 2
smoothSolver:  Solving for k, Initial residual = 0.000208477, Final residual = 8.73708e-06, No Iterations 5
ExecutionTime = 42.09 s  ClockTime = 42 s

Time = 2.8

Courant Number mean: 0.0234001 max: 0.0281895
smoothSolver:  Solving for Ux, Initial residual = 4.21834e-05, Final residual = 9.17849e-06, No Iterations 2
smoothSolver:  Solving for Uy, Initial residual = 0.0301073, Final residual = 8.52286e-06, No Iterations 20
smoothSolver:  Solving for Uz, Initial residual = 0.0146047, Final residual = 8.05964e-06, No Iterations 20
Pressure gradient source: uncorrected Ubar = 0.390001, pressure gradient = 0.00399829
GAMG:  Solving for p, Initial residual = 0.240072, Final residual = 0.0216307, No Iterations 16
time step continuity errors : sum local = 9.89006e-11, global = 4.2373e-20, cumulative = 7.34568e-18
Pressure gradient source: uncorrected Ubar = 0.39, pressure gradient = 0.00401634
GAMG:  Solving for p, Initial residual = 0.200808, Final residual = 9.83614e-07, No Iterations 424
time step continuity errors : sum local = 4.08712e-15, global = -1.72533e-20, cumulative = 7.32843e-18
Pressure gradient source: uncorrected Ubar = 0.39, pressure gradient = 0.00402277
smoothSolver:  Solving for epsilon, Initial residual = 3.20961e-05, Final residual = 6.62111e-06, No Iterations 2
smoothSolver:  Solving for k, Initial residual = 0.000201638, Final residual = 8.16811e-06, No Iterations 5
ExecutionTime = 42.8 s  ClockTime = 43 s

Time = 2.85

Courant Number mean: 0.0234001 max: 0.0281899
smoothSolver:  Solving for Ux, Initial residual = 4.19768e-05, Final residual = 9.09076e-06, No Iterations 2
smoothSolver:  Solving for Uy, Initial residual = 0.0296328, Final residual = 9.57688e-06, No Iterations 20
smoothSolver:  Solving for Uz, Initial residual = 0.0144609, Final residual = 8.21526e-06, No Iterations 20
Pressure gradient source: uncorrected Ubar = 0.390001, pressure gradient = 0.00399865
GAMG:  Solving for p, Initial residual = 0.258617, Final residual = 0.0240263, No Iterations 18
time step continuity errors : sum local = 1.03131e-10, global = 1.89846e-19, cumulative = 7.51828e-18
Pressure gradient source: uncorrected Ubar = 0.39, pressure gradient = 0.00401659
GAMG:  Solving for p, Initial residual = 0.18344, Final residual = 9.72304e-07, No Iterations 366
time step continuity errors : sum local = 4.47759e-15, global = 9.2684e-20, cumulative = 7.61096e-18
Pressure gradient source: uncorrected Ubar = 0.39, pressure gradient = 0.00402296
smoothSolver:  Solving for epsilon, Initial residual = 3.15725e-05, Final residual = 6.46028e-06, No Iterations 2
smoothSolver:  Solving for k, Initial residual = 0.000195588, Final residual = 7.64466e-06, No Iterations 5
ExecutionTime = 43.42 s  ClockTime = 44 s

Time = 2.9

Courant Number mean: 0.0234001 max: 0.0281904
smoothSolver:  Solving for Ux, Initial residual = 4.1762e-05, Final residual = 9.00684e-06, No Iterations 2
smoothSolver:  Solving for Uy, Initial residual = 0.0274901, Final residual = 8.20602e-06, No Iterations 20
smoothSolver:  Solving for Uz, Initial residual = 0.01424, Final residual = 8.06691e-06, No Iterations 20
Pressure gradient source: uncorrected Ubar = 0.390001, pressure gradient = 0.00399896
GAMG:  Solving for p, Initial residual = 0.239534, Final residual = 0.0216658, No Iterations 16
time step continuity errors : sum local = 9.82823e-11, global = 7.84531e-20, cumulative = 7.68941e-18
Pressure gradient source: uncorrected Ubar = 0.39, pressure gradient = 0.00401681
GAMG:  Solving for p, Initial residual = 0.197749, Final residual = 9.86922e-07, No Iterations 410
time step continuity errors : sum local = 4.18372e-15, global = -7.37407e-20, cumulative = 7.61567e-18
Pressure gradient source: uncorrected Ubar = 0.39, pressure gradient = 0.00402314
smoothSolver:  Solving for epsilon, Initial residual = 3.10978e-05, Final residual = 6.30459e-06, No Iterations 2
smoothSolver:  Solving for k, Initial residual = 0.000190262, Final residual = 7.16854e-06, No Iterations 5
ExecutionTime = 44.1 s  ClockTime = 44 s

Time = 2.95

Courant Number mean: 0.0234001 max: 0.0281909
smoothSolver:  Solving for Ux, Initial residual = 4.15379e-05, Final residual = 8.92073e-06, No Iterations 2
smoothSolver:  Solving for Uy, Initial residual = 0.0260091, Final residual = 8.95648e-06, No Iterations 20
smoothSolver:  Solving for Uz, Initial residual = 0.0140887, Final residual = 8.0574e-06, No Iterations 20
Pressure gradient source: uncorrected Ubar = 0.390001, pressure gradient = 0.00399929
GAMG:  Solving for p, Initial residual = 0.25457, Final residual = 0.0227465, No Iterations 18
time step continuity errors : sum local = 9.893e-11, global = -1.98702e-20, cumulative = 7.5958e-18
Pressure gradient source: uncorrected Ubar = 0.39, pressure gradient = 0.00401703
GAMG:  Solving for p, Initial residual = 0.188097, Final residual = 9.66814e-07, No Iterations 318
time step continuity errors : sum local = 4.34413e-15, global = 3.93533e-20, cumulative = 7.63516e-18
Pressure gradient source: uncorrected Ubar = 0.39, pressure gradient = 0.00402331
smoothSolver:  Solving for epsilon, Initial residual = 3.06113e-05, Final residual = 6.17053e-06, No Iterations 2
smoothSolver:  Solving for k, Initial residual = 0.000185644, Final residual = 6.73842e-06, No Iterations 5
ExecutionTime = 44.66 s  ClockTime = 45 s

Time = 3

Courant Number mean: 0.0234001 max: 0.0281914
smoothSolver:  Solving for Ux, Initial residual = 4.13113e-05, Final residual = 8.83532e-06, No Iterations 2
smoothSolver:  Solving for Uy, Initial residual = 0.0247081, Final residual = 7.63589e-06, No Iterations 20
smoothSolver:  Solving for Uz, Initial residual = 0.0137545, Final residual = 7.81791e-06, No Iterations 20
Pressure gradient source: uncorrected Ubar = 0.390001, pressure gradient = 0.0039996
GAMG:  Solving for p, Initial residual = 0.242628, Final residual = 0.0218613, No Iterations 16
time step continuity errors : sum local = 9.828e-11, global = 8.8763e-20, cumulative = 7.72392e-18
Pressure gradient source: uncorrected Ubar = 0.39, pressure gradient = 0.00401723
GAMG:  Solving for p, Initial residual = 0.197069, Final residual = 9.91019e-07, No Iterations 376
time step continuity errors : sum local = 4.21856e-15, global = 8.52037e-20, cumulative = 7.80912e-18
Pressure gradient source: uncorrected Ubar = 0.39, pressure gradient = 0.00402346
smoothSolver:  Solving for epsilon, Initial residual = 3.01483e-05, Final residual = 6.04668e-06, No Iterations 2
[...]
time step continuity errors : sum local = 4.74194e-15, global = 1.05071e-19, cumulative = 1.8652e-16
Pressure gradient source: uncorrected Ubar = 0.39, pressure gradient = 0.00405305
smoothSolver:  Solving for epsilon, Initial residual = 9.32786e-06, Final residual = 9.32786e-06, No Iterations 0
smoothSolver:  Solving for k, Initial residual = 5.04921e-05, Final residual = 6.34699e-06, No Iterations 3
ExecutionTime = 1095.92 s  ClockTime = 1099 s

Time = 79.3

Courant Number mean: 0.0234001 max: 0.0281833
smoothSolver:  Solving for Ux, Initial residual = 4.61944e-06, Final residual = 4.61944e-06, No Iterations 0
smoothSolver:  Solving for Uy, Initial residual = 0.0169411, Final residual = 8.11022e-06, No Iterations 17
smoothSolver:  Solving for Uz, Initial residual = 0.028876, Final residual = 7.8452e-06, No Iterations 23
Pressure gradient source: uncorrected Ubar = 0.39, pressure gradient = 0.00405305
GAMG:  Solving for p, Initial residual = 0.183945, Final residual = 0.0174872, No Iterations 18
time step continuity errors : sum local = 8.62887e-11, global = 3.01362e-20, cumulative = 1.8655e-16
Pressure gradient source: uncorrected Ubar = 0.39, pressure gradient = 0.00405444
GAMG:  Solving for p, Initial residual = 0.153301, Final residual = 9.67677e-07, No Iterations 349
time step continuity errors : sum local = 4.59218e-15, global = 5.58539e-20, cumulative = 1.86606e-16
Pressure gradient source: uncorrected Ubar = 0.39, pressure gradient = 0.00405297
smoothSolver:  Solving for epsilon, Initial residual = 1.0879e-05, Final residual = 5.04474e-06, No Iterations 1
smoothSolver:  Solving for k, Initial residual = 5.12842e-05, Final residual = 6.53309e-06, No Iterations 3
ExecutionTime = 1096.54 s  ClockTime = 1099 s

Time = 79.35

Courant Number mean: 0.0234001 max: 0.0281834
smoothSolver:  Solving for Ux, Initial residual = 4.59908e-06, Final residual = 4.59908e-06, No Iterations 0
smoothSolver:  Solving for Uy, Initial residual = 0.0180591, Final residual = 8.06742e-06, No Iterations 17
smoothSolver:  Solving for Uz, Initial residual = 0.0307252, Final residual = 8.28459e-06, No Iterations 23
Pressure gradient source: uncorrected Ubar = 0.39, pressure gradient = 0.00405297
GAMG:  Solving for p, Initial residual = 0.197632, Final residual = 0.0197176, No Iterations 16
time step continuity errors : sum local = 9.70543e-11, global = -4.67012e-23, cumulative = 1.86606e-16
Pressure gradient source: uncorrected Ubar = 0.39, pressure gradient = 0.00405437
GAMG:  Solving for p, Initial residual = 0.152822, Final residual = 9.69795e-07, No Iterations 351
time step continuity errors : sum local = 4.85687e-15, global = 4.87715e-20, cumulative = 1.86655e-16
Pressure gradient source: uncorrected Ubar = 0.39, pressure gradient = 0.0040529
smoothSolver:  Solving for epsilon, Initial residual = 9.83505e-06, Final residual = 9.83505e-06, No Iterations 0
smoothSolver:  Solving for k, Initial residual = 5.22284e-05, Final residual = 6.74108e-06, No Iterations 3
ExecutionTime = 1097.16 s  ClockTime = 1100 s

Time = 79.4

Courant Number mean: 0.0234001 max: 0.0281834
smoothSolver:  Solving for Ux, Initial residual = 4.64332e-06, Final residual = 4.64332e-06, No Iterations 0
smoothSolver:  Solving for Uy, Initial residual = 0.0170906, Final residual = 8.46025e-06, No Iterations 17
smoothSolver:  Solving for Uz, Initial residual = 0.0303057, Final residual = 8.34738e-06, No Iterations 23
Pressure gradient source: uncorrected Ubar = 0.39, pressure gradient = 0.0040529
GAMG:  Solving for p, Initial residual = 0.193618, Final residual = 0.0182697, No Iterations 18
time step continuity errors : sum local = 9.32476e-11, global = 4.22793e-20, cumulative = 1.86697e-16
Pressure gradient source: uncorrected Ubar = 0.39, pressure gradient = 0.00405428
GAMG:  Solving for p, Initial residual = 0.161634, Final residual = 9.98185e-07, No Iterations 347
time step continuity errors : sum local = 4.84852e-15, global = 1.36318e-19, cumulative = 1.86834e-16
Pressure gradient source: uncorrected Ubar = 0.39, pressure gradient = 0.00405282
smoothSolver:  Solving for epsilon, Initial residual = 1.15358e-05, Final residual = 5.42233e-06, No Iterations 1
smoothSolver:  Solving for k, Initial residual = 5.31117e-05, Final residual = 6.91036e-06, No Iterations 3
ExecutionTime = 1097.77 s  ClockTime = 1100 s

Time = 79.45

Courant Number mean: 0.0234001 max: 0.0281834
smoothSolver:  Solving for Ux, Initial residual = 4.61393e-06, Final residual = 4.61393e-06, No Iterations 0
smoothSolver:  Solving for Uy, Initial residual = 0.0183603, Final residual = 8.47158e-06, No Iterations 17
smoothSolver:  Solving for Uz, Initial residual = 0.031951, Final residual = 8.63639e-06, No Iterations 23
Pressure gradient source: uncorrected Ubar = 0.39, pressure gradient = 0.00405282
GAMG:  Solving for p, Initial residual = 0.206705, Final residual = 0.0204581, No Iterations 16
time step continuity errors : sum local = 1.02861e-10, global = 8.68757e-20, cumulative = 1.8692e-16
Pressure gradient source: uncorrected Ubar = 0.39, pressure gradient = 0.00405419
GAMG:  Solving for p, Initial residual = 0.159114, Final residual = 9.87224e-07, No Iterations 349
time step continuity errors : sum local = 5.04654e-15, global = 1.34654e-19, cumulative = 1.87055e-16
Pressure gradient source: uncorrected Ubar = 0.39, pressure gradient = 0.00405274
smoothSolver:  Solving for epsilon, Initial residual = 1.04809e-05, Final residual = 4.98592e-06, No Iterations 1
smoothSolver:  Solving for k, Initial residual = 5.19689e-05, Final residual = 6.69154e-06, No Iterations 3
ExecutionTime = 1098.39 s  ClockTime = 1101 s

Time = 79.5

Courant Number mean: 0.0234001 max: 0.0281835
smoothSolver:  Solving for Ux, Initial residual = 4.581e-06, Final residual = 4.581e-06, No Iterations 0
smoothSolver:  Solving for Uy, Initial residual = 0.0172074, Final residual = 8.76981e-06, No Iterations 17
smoothSolver:  Solving for Uz, Initial residual = 0.0328394, Final residual = 8.95821e-06, No Iterations 23
Pressure gradient source: uncorrected Ubar = 0.39, pressure gradient = 0.00405274
GAMG:  Solving for p, Initial residual = 0.208026, Final residual = 0.0189403, No Iterations 18
time step continuity errors : sum local = 9.88794e-11, global = 1.9739e-19, cumulative = 1.87252e-16
Pressure gradient source: uncorrected Ubar = 0.39, pressure gradient = 0.0040541
GAMG:  Solving for p, Initial residual = 0.174863, Final residual = 9.98904e-07, No Iterations 341
time step continuity errors : sum local = 4.88142e-15, global = 9.66825e-20, cumulative = 1.87349e-16
Pressure gradient source: uncorrected Ubar = 0.39, pressure gradient = 0.00405266
smoothSolver:  Solving for epsilon, Initial residual = 9.67421e-06, Final residual = 9.67421e-06, No Iterations 0
smoothSolver:  Solving for k, Initial residual = 5.29181e-05, Final residual = 6.85301e-06, No Iterations 3
ExecutionTime = 1098.99 s  ClockTime = 1102 s

Time = 79.55

Courant Number mean: 0.0234001 max: 0.0281835
smoothSolver:  Solving for Ux, Initial residual = 4.61922e-06, Final residual = 4.61922e-06, No Iterations 0
smoothSolver:  Solving for Uy, Initial residual = 0.0178718, Final residual = 8.67377e-06, No Iterations 17
smoothSolver:  Solving for Uz, Initial residual = 0.0309322, Final residual = 8.37706e-06, No Iterations 23
Pressure gradient source: uncorrected Ubar = 0.39, pressure gradient = 0.00405266
GAMG:  Solving for p, Initial residual = 0.206657, Final residual = 0.019828, No Iterations 18
time step continuity errors : sum local = 9.91204e-11, global = 1.17782e-19, cumulative = 1.87467e-16
Pressure gradient source: uncorrected Ubar = 0.39, pressure gradient = 0.004054
GAMG:  Solving for p, Initial residual = 0.156761, Final residual = 9.70346e-07, No Iterations 343
time step continuity errors : sum local = 5.04683e-15, global = 1.23292e-19, cumulative = 1.8759e-16
Pressure gradient source: uncorrected Ubar = 0.39, pressure gradient = 0.00405256
smoothSolver:  Solving for epsilon, Initial residual = 1.13038e-05, Final residual = 5.33934e-06, No Iterations 1
smoothSolver:  Solving for k, Initial residual = 5.37894e-05, Final residual = 6.97519e-06, No Iterations 3
ExecutionTime = 1099.61 s  ClockTime = 1102 s

Time = 79.6

Courant Number mean: 0.0234001 max: 0.0281835
smoothSolver:  Solving for Ux, Initial residual = 4.57999e-06, Final residual = 4.57999e-06, No Iterations 0
smoothSolver:  Solving for Uy, Initial residual = 0.0171044, Final residual = 8.57309e-06, No Iterations 17
smoothSolver:  Solving for Uz, Initial residual = 0.0320452, Final residual = 8.54241e-06, No Iterations 23
Pressure gradient source: uncorrected Ubar = 0.39, pressure gradient = 0.00405256
GAMG:  Solving for p, Initial residual = 0.205649, Final residual = 0.0186587, No Iterations 18
time step continuity errors : sum local = 9.64413e-11, global = 1.3384e-19, cumulative = 1.87724e-16
Pressure gradient source: uncorrected Ubar = 0.39, pressure gradient = 0.0040539
GAMG:  Solving for p, Initial residual = 0.172063, Final residual = 9.78903e-07, No Iterations 337
time step continuity errors : sum local = 4.7478e-15, global = 5.54627e-20, cumulative = 1.87779e-16
Pressure gradient source: uncorrected Ubar = 0.39, pressure gradient = 0.00405247
smoothSolver:  Solving for epsilon, Initial residual = 1.03334e-05, Final residual = 4.9177e-06, No Iterations 1
smoothSolver:  Solving for k, Initial residual = 5.25207e-05, Final residual = 6.68532e-06, No Iterations 3
ExecutionTime = 1100.21 s  ClockTime = 1103 s

Time = 79.65

Courant Number mean: 0.0234001 max: 0.0281836
smoothSolver:  Solving for Ux, Initial residual = 4.53729e-06, Final residual = 4.53729e-06, No Iterations 0
smoothSolver:  Solving for Uy, Initial residual = 0.0174337, Final residual = 8.43893e-06, No Iterations 17
smoothSolver:  Solving for Uz, Initial residual = 0.0311723, Final residual = 8.20186e-06, No Iterations 23
Pressure gradient source: uncorrected Ubar = 0.39, pressure gradient = 0.00405247
GAMG:  Solving for p, Initial residual = 0.209502, Final residual = 0.0189833, No Iterations 18
time step continuity errors : sum local = 9.42427e-11, global = 1.70846e-19, cumulative = 1.8795e-16
Pressure gradient source: uncorrected Ubar = 0.39, pressure gradient = 0.00405381
GAMG:  Solving for p, Initial residual = 0.160788, Final residual = 9.66872e-07, No Iterations 327
time step continuity errors : sum local = 4.90102e-15, global = 1.70499e-19, cumulative = 1.88121e-16
Pressure gradient source: uncorrected Ubar = 0.39, pressure gradient = 0.00405239
smoothSolver:  Solving for epsilon, Initial residual = 9.55051e-06, Final residual = 9.55051e-06, No Iterations 0
smoothSolver:  Solving for k, Initial residual = 5.3433e-05, Final residual = 6.7933e-06, No Iterations 3
ExecutionTime = 1100.79 s  ClockTime = 1103 s

Time = 79.7

Courant Number mean: 0.0234001 max: 0.0281836
smoothSolver:  Solving for Ux, Initial residual = 4.56672e-06, Final residual = 4.56672e-06, No Iterations 0
smoothSolver:  Solving for Uy, Initial residual = 0.0165721, Final residual = 8.17559e-06, No Iterations 17
smoothSolver:  Solving for Uz, Initial residual = 0.0299773, Final residual = 7.78918e-06, No Iterations 23
Pressure gradient source: uncorrected Ubar = 0.39, pressure gradient = 0.00405239
GAMG:  Solving for p, Initial residual = 0.195934, Final residual = 0.018596, No Iterations 18
time step continuity errors : sum local = 9.44274e-11, global = 1.78774e-19, cumulative = 1.883e-16
Pressure gradient source: uncorrected Ubar = 0.39, pressure gradient = 0.0040537
GAMG:  Solving for p, Initial residual = 0.163768, Final residual = 9.9902e-07, No Iterations 339
time step continuity errors : sum local = 4.73827e-15, global = 1.40302e-19, cumulative = 1.8844e-16
Pressure gradient source: uncorrected Ubar = 0.39, pressure gradient = 0.00405228
smoothSolver:  Solving for epsilon, Initial residual = 1.10975e-05, Final residual = 5.21768e-06, No Iterations 1
smoothSolver:  Solving for k, Initial residual = 5.4303e-05, Final residual = 6.86991e-06, No Iterations 3
ExecutionTime = 1101.4 s  ClockTime = 1104 s

Time = 79.75

Courant Number mean: 0.0234001 max: 0.0281836
smoothSolver:  Solving for Ux, Initial residual = 4.5186e-06, Final residual = 4.5186e-06, No Iterations 0
smoothSolver:  Solving for Uy, Initial residual = 0.0168991, Final residual = 8.25785e-06, No Iterations 17
smoothSolver:  Solving for Uz, Initial residual = 0.0305394, Final residual = 7.85304e-06, No Iterations 23
Pressure gradient source: uncorrected Ubar = 0.39, pressure gradient = 0.00405228
GAMG:  Solving for p, Initial residual = 0.21046, Final residual = 0.0191889, No Iterations 18
time step continuity errors : sum local = 9.36727e-11, global = 6.00397e-20, cumulative = 1.885e-16
Pressure gradient source: uncorrected Ubar = 0.39, pressure gradient = 0.0040536
GAMG:  Solving for p, Initial residual = 0.160306, Final residual = 9.85642e-07, No Iterations 310
time step continuity errors : sum local = 4.92241e-15, global = 6.35975e-20, cumulative = 1.88564e-16
Pressure gradient source: uncorrected Ubar = 0.39, pressure gradient = 0.00405219
smoothSolver:  Solving for epsilon, Initial residual = 1.01144e-05, Final residual = 4.79009e-06, No Iterations 1
smoothSolver:  Solving for k, Initial residual = 5.29677e-05, Final residual = 6.53039e-06, No Iterations 3
ExecutionTime = 1101.95 s  ClockTime = 1105 s

Time = 79.8

Courant Number mean: 0.0234001 max: 0.0281836
smoothSolver:  Solving for Ux, Initial residual = 4.46772e-06, Final residual = 4.46772e-06, No Iterations 0
smoothSolver:  Solving for Uy, Initial residual = 0.0163596, Final residual = 7.98533e-06, No Iterations 17
smoothSolver:  Solving for Uz, Initial residual = 0.0302193, Final residual = 7.5915e-06, No Iterations 23
Pressure gradient source: uncorrected Ubar = 0.39, pressure gradient = 0.00405219
GAMG:  Solving for p, Initial residual = 0.200701, Final residual = 0.0186753, No Iterations 18
time step continuity errors : sum local = 9.32277e-11, global = 1.07973e-19, cumulative = 1.88672e-16
Pressure gradient source: uncorrected Ubar = 0.39, pressure gradient = 0.00405351
GAMG:  Solving for p, Initial residual = 0.168086, Final residual = 9.65875e-07, No Iterations 305
time step continuity errors : sum local = 4.45037e-15, global = 1.2213e-19, cumulative = 1.88794e-16
Pressure gradient source: uncorrected Ubar = 0.39, pressure gradient = 0.0040521
smoothSolver:  Solving for epsilon, Initial residual = 9.31867e-06, Final residual = 9.31867e-06, No Iterations 0
smoothSolver:  Solving for k, Initial residual = 5.37843e-05, Final residual = 6.59074e-06, No Iterations 3
ExecutionTime = 1102.51 s  ClockTime = 1105 s

Time = 79.85

Courant Number mean: 0.0234001 max: 0.0281837
smoothSolver:  Solving for Ux, Initial residual = 4.48607e-06, Final residual = 4.48607e-06, No Iterations 0
smoothSolver:  Solving for Uy, Initial residual = 0.0160701, Final residual = 8.03292e-06, No Iterations 17
smoothSolver:  Solving for Uz, Initial residual = 0.02892, Final residual = 7.29764e-06, No Iterations 23
Pressure gradient source: uncorrected Ubar = 0.39, pressure gradient = 0.0040521
GAMG:  Solving for p, Initial residual = 0.206788, Final residual = 0.0199305, No Iterations 18
time step continuity errors : sum local = 9.39232e-11, global = 8.28856e-20, cumulative = 1.88877e-16
Pressure gradient source: uncorrected Ubar = 0.39, pressure gradient = 0.00405339
GAMG:  Solving for p, Initial residual = 0.154055, Final residual = 9.70095e-07, No Iterations 305
time step continuity errors : sum local = 4.7818e-15, global = 7.82724e-20, cumulative = 1.88955e-16
Pressure gradient source: uncorrected Ubar = 0.39, pressure gradient = 0.00405198
smoothSolver:  Solving for epsilon, Initial residual = 1.07579e-05, Final residual = 5.02399e-06, No Iterations 1
smoothSolver:  Solving for k, Initial residual = 5.45869e-05, Final residual = 6.62711e-06, No Iterations 3
ExecutionTime = 1103.05 s  ClockTime = 1106 s

Time = 79.9

Courant Number mean: 0.0234001 max: 0.0281837
smoothSolver:  Solving for Ux, Initial residual = 4.43084e-06, Final residual = 4.43084e-06, No Iterations 0
smoothSolver:  Solving for Uy, Initial residual = 0.016114, Final residual = 7.80251e-06, No Iterations 17
smoothSolver:  Solving for Uz, Initial residual = 0.0297352, Final residual = 7.26284e-06, No Iterations 23
Pressure gradient source: uncorrected Ubar = 0.39, pressure gradient = 0.00405198
GAMG:  Solving for p, Initial residual = 0.203716, Final residual = 0.0189588, No Iterations 18
time step continuity errors : sum local = 9.15985e-11, global = 1.99664e-19, cumulative = 1.89154e-16
Pressure gradient source: uncorrected Ubar = 0.39, pressure gradient = 0.00405329
GAMG:  Solving for p, Initial residual = 0.169078, Final residual = 9.7857e-07, No Iterations 249
time step continuity errors : sum local = 4.39195e-15, global = -3.64391e-20, cumulative = 1.89118e-16
Pressure gradient source: uncorrected Ubar = 0.39, pressure gradient = 0.00405189
smoothSolver:  Solving for epsilon, Initial residual = 9.78667e-06, Final residual = 9.78667e-06, No Iterations 0
smoothSolver:  Solving for k, Initial residual = 5.53327e-05, Final residual = 6.66621e-06, No Iterations 3
ExecutionTime = 1103.52 s  ClockTime = 1106 s

Time = 79.95

Courant Number mean: 0.0234001 max: 0.0281837
smoothSolver:  Solving for Ux, Initial residual = 4.4499e-06, Final residual = 4.4499e-06, No Iterations 0
smoothSolver:  Solving for Uy, Initial residual = 0.0155791, Final residual = 7.80868e-06, No Iterations 17
smoothSolver:  Solving for Uz, Initial residual = 0.0283066, Final residual = 9.55292e-06, No Iterations 22
Pressure gradient source: uncorrected Ubar = 0.39, pressure gradient = 0.00405189
GAMG:  Solving for p, Initial residual = 0.207723, Final residual = 0.0199515, No Iterations 18
time step continuity errors : sum local = 9.13931e-11, global = 1.10826e-19, cumulative = 1.89229e-16
Pressure gradient source: uncorrected Ubar = 0.39, pressure gradient = 0.00405316
GAMG:  Solving for p, Initial residual = 0.15628, Final residual = 9.79204e-07, No Iterations 267
time step continuity errors : sum local = 4.60965e-15, global = 2.49884e-20, cumulative = 1.89254e-16
Pressure gradient source: uncorrected Ubar = 0.39, pressure gradient = 0.00405176
smoothSolver:  Solving for epsilon, Initial residual = 1.1278e-05, Final residual = 5.23726e-06, No Iterations 1
smoothSolver:  Solving for k, Initial residual = 5.6148e-05, Final residual = 6.67974e-06, No Iterations 3
ExecutionTime = 1104.01 s  ClockTime = 1107 s

Time = 80

Courant Number mean: 0.0234001 max: 0.0281837
smoothSolver:  Solving for Ux, Initial residual = 4.39166e-06, Final residual = 4.39166e-06, No Iterations 0
smoothSolver:  Solving for Uy, Initial residual = 0.0158821, Final residual = 7.57385e-06, No Iterations 17
smoothSolver:  Solving for Uz, Initial residual = 0.0290802, Final residual = 9.42283e-06, No Iterations 22
Pressure gradient source: uncorrected Ubar = 0.39, pressure gradient = 0.00405176
GAMG:  Solving for p, Initial residual = 0.206087, Final residual = 0.0194877, No Iterations 18
time step continuity errors : sum local = 9.09452e-11, global = 3.79052e-20, cumulative = 1.89292e-16
Pressure gradient source: uncorrected Ubar = 0.39, pressure gradient = 0.00405305
GAMG:  Solving for p, Initial residual = 0.17168, Final residual = 9.89613e-07, No Iterations 244
time step continuity errors : sum local = 4.24417e-15, global = -3.0451e-20, cumulative = 1.89261e-16
Pressure gradient source: uncorrected Ubar = 0.39, pressure gradient = 0.00405167
smoothSolver:  Solving for epsilon, Initial residual = 1.01283e-05, Final residual = 4.75054e-06, No Iterations 1
smoothSolver:  Solving for k, Initial residual = 5.46778e-05, Final residual = 6.26906e-06, No Iterations 3
ExecutionTime = 1104.53 s  ClockTime = 1108 s

End

Finalising parallel run
