--------------------------------------------------------------------------
[[43504,1],0]: A high-performance Open MPI point-to-point messaging module
was unable to find any relevant network interfaces:

Module: OpenFabrics (openib)
  Host: hyd37

Another transport will be used instead, although this may result in
lower performance.
--------------------------------------------------------------------------
/*---------------------------------------------------------------------------*\
  =========                 |
  \\      /  F ield         | OpenFOAM: The Open Source CFD Toolbox
   \\    /   O peration     | Website:  https://openfoam.org
    \\  /    A nd           | Version:  6
     \\/     M anipulation  |
\*---------------------------------------------------------------------------*/
Build  : 6-eb0ce5d792a1
Exec   : pisoFoam -parallel
Date   : Jul 06 2022
Time   : 14:57:42
Host   : "hyd37"
PID    : 81896
I/O    : uncollated
Case   : /students/rtanuharja/turbCoMe/precursor_kOmega
nProcs : 3
Slaves : 
2
(
"hyd37.81897"
"hyd37.81898"
)

Pstream initialized with:
    floatTransfer      : 0
    nProcsSimpleSum    : 0
    commsType          : nonBlocking
    polling iterations : 0
fileModificationChecking : Monitoring run-time modified files using timeStampMaster (fileModificationSkew 10)
allowSystemOperations : Allowing user-supplied system call operations

// * * * * * * * * * * * * * * * * * * * * * * * * * * * * * * * * * * * * * //
Create time

Create mesh for time = 0

Reading field p

Reading field U

Reading/calculating face flux field phi

Selecting incompressible transport model Newtonian
Selecting turbulence model type RAS
Selecting RAS turbulence model kOmega
RAS
{
    RASModel        kOmega;
    turbulence      on;
    printCoeffs     on;
    betaStar        0.09;
    beta            0.072;
    gamma           0.52;
    alphaK          0.5;
    alphaOmega      0.5;
}

No MRF models present

Creating finite volume options from "constant/fvOptions"

Selecting finite volume options model type meanVelocityForce
    Source: momentumSource
    - selecting all cells
    - selected 2160 cell(s) with volume 0.45
    Initial pressure gradient = 0


Starting time loop

Time = 0.05

Courant Number mean: 0.0233393 max: 0.026457
smoothSolver:  Solving for Ux, Initial residual = 0.00264565, Final residual = 9.80768e-06, No Iterations 3
smoothSolver:  Solving for Uy, Initial residual = 0.728266, Final residual = 9.94989e-06, No Iterations 7
smoothSolver:  Solving for Uz, Initial residual = 0.493507, Final residual = 4.38257e-06, No Iterations 9
Pressure gradient source: uncorrected Ubar = 0.388852, pressure gradient = 0.0312773
GAMG:  Solving for p, Initial residual = 0.997207, Final residual = 0.0961896, No Iterations 30
time step continuity errors : sum local = 9.69922e-07, global = 9.9299e-20, cumulative = 9.9299e-20
Pressure gradient source: uncorrected Ubar = 0.389127, pressure gradient = 0.0237988
GAMG:  Solving for p, Initial residual = 0.0247795, Final residual = 9.91277e-07, No Iterations 249
time step continuity errors : sum local = 8.98094e-11, global = 5.77741e-20, cumulative = 1.57073e-19
Pressure gradient source: uncorrected Ubar = 0.389144, pressure gradient = 0.0233202
smoothSolver:  Solving for omega, Initial residual = 0.0554251, Final residual = 5.94234e-06, No Iterations 2
smoothSolver:  Solving for k, Initial residual = 0.0311922, Final residual = 3.01375e-06, No Iterations 4
ExecutionTime = 0.42 s  ClockTime = 1 s

Time = 0.1

Courant Number mean: 0.0233726 max: 0.0264634
smoothSolver:  Solving for Ux, Initial residual = 0.00622427, Final residual = 5.9921e-06, No Iterations 5
smoothSolver:  Solving for Uy, Initial residual = 0.338331, Final residual = 3.85345e-06, No Iterations 9
smoothSolver:  Solving for Uz, Initial residual = 0.372751, Final residual = 6.07058e-06, No Iterations 9
Pressure gradient source: uncorrected Ubar = 0.391037, pressure gradient = -0.00486968
GAMG:  Solving for p, Initial residual = 0.162973, Final residual = 0.0161232, No Iterations 28
time step continuity errors : sum local = 9.78129e-07, global = 1.06142e-19, cumulative = 2.63215e-19
Pressure gradient source: uncorrected Ubar = 0.390793, pressure gradient = 0.00177113
GAMG:  Solving for p, Initial residual = 0.107894, Final residual = 9.97511e-07, No Iterations 284
time step continuity errors : sum local = 1.85373e-11, global = 4.542e-20, cumulative = 3.08635e-19
Pressure gradient source: uncorrected Ubar = 0.390777, pressure gradient = 0.00220858
smoothSolver:  Solving for omega, Initial residual = 0.00224038, Final residual = 6.73662e-06, No Iterations 2
smoothSolver:  Solving for k, Initial residual = 0.0181481, Final residual = 2.55081e-06, No Iterations 4
ExecutionTime = 0.8 s  ClockTime = 1 s

Time = 0.15

Courant Number mean: 0.0234299 max: 0.0265286
smoothSolver:  Solving for Ux, Initial residual = 0.0014106, Final residual = 5.52617e-06, No Iterations 3
smoothSolver:  Solving for Uy, Initial residual = 0.0259335, Final residual = 9.97782e-06, No Iterations 6
smoothSolver:  Solving for Uz, Initial residual = 0.291555, Final residual = 4.26189e-06, No Iterations 10
Pressure gradient source: uncorrected Ubar = 0.38999, pressure gradient = 0.00246823
GAMG:  Solving for p, Initial residual = 0.162773, Final residual = 0.016146, No Iterations 10
time step continuity errors : sum local = 1.20681e-07, global = 8.70151e-20, cumulative = 3.9565e-19
Pressure gradient source: uncorrected Ubar = 0.389992, pressure gradient = 0.00243136
GAMG:  Solving for p, Initial residual = 0.0745648, Final residual = 9.77076e-07, No Iterations 186
time step continuity errors : sum local = 7.54794e-12, global = 1.02604e-19, cumulative = 4.98254e-19
Pressure gradient source: uncorrected Ubar = 0.389992, pressure gradient = 0.00242603
smoothSolver:  Solving for omega, Initial residual = 0.00112532, Final residual = 4.19212e-06, No Iterations 2
smoothSolver:  Solving for k, Initial residual = 0.0169231, Final residual = 1.99305e-06, No Iterations 4
ExecutionTime = 1.06 s  ClockTime = 1 s

Time = 0.2

Courant Number mean: 0.0234261 max: 0.0265304
smoothSolver:  Solving for Ux, Initial residual = 0.00117254, Final residual = 5.15533e-06, No Iterations 3
smoothSolver:  Solving for Uy, Initial residual = 0.012818, Final residual = 3.57978e-06, No Iterations 6
smoothSolver:  Solving for Uz, Initial residual = 0.181708, Final residual = 9.64471e-06, No Iterations 8
Pressure gradient source: uncorrected Ubar = 0.390002, pressure gradient = 0.00236816
GAMG:  Solving for p, Initial residual = 0.0455095, Final residual = 0.00436037, No Iterations 31
time step continuity errors : sum local = 3.07542e-08, global = 1.50221e-19, cumulative = 6.48475e-19
Pressure gradient source: uncorrected Ubar = 0.390002, pressure gradient = 0.00238222
GAMG:  Solving for p, Initial residual = 0.0210819, Final residual = 9.92477e-07, No Iterations 205
time step continuity errors : sum local = 5.84982e-12, global = 5.74551e-20, cumulative = 7.0593e-19
Pressure gradient source: uncorrected Ubar = 0.390002, pressure gradient = 0.00238289
smoothSolver:  Solving for omega, Initial residual = 0.00060211, Final residual = 2.46154e-06, No Iterations 2
smoothSolver:  Solving for k, Initial residual = 0.0156102, Final residual = 9.68487e-06, No Iterations 3
ExecutionTime = 1.35 s  ClockTime = 1 s

Time = 0.25

Courant Number mean: 0.0234243 max: 0.0265327
smoothSolver:  Solving for Ux, Initial residual = 0.00102548, Final residual = 5.10308e-06, No Iterations 3
smoothSolver:  Solving for Uy, Initial residual = 0.0141025, Final residual = 3.56518e-06, No Iterations 6
smoothSolver:  Solving for Uz, Initial residual = 0.106865, Final residual = 7.89595e-06, No Iterations 7
Pressure gradient source: uncorrected Ubar = 0.39, pressure gradient = 0.00237275
GAMG:  Solving for p, Initial residual = 0.023896, Final residual = 0.00238754, No Iterations 31
time step continuity errors : sum local = 1.3621e-08, global = -6.22864e-20, cumulative = 6.43644e-19
Pressure gradient source: uncorrected Ubar = 0.39, pressure gradient = 0.0023783
GAMG:  Solving for p, Initial residual = 0.00900428, Final residual = 9.9999e-07, No Iterations 197
time step continuity errors : sum local = 4.96938e-12, global = 2.82015e-20, cumulative = 6.71845e-19
Pressure gradient source: uncorrected Ubar = 0.39, pressure gradient = 0.00237885
smoothSolver:  Solving for omega, Initial residual = 0.000412259, Final residual = 2.57648e-06, No Iterations 2
smoothSolver:  Solving for k, Initial residual = 0.0144414, Final residual = 1.53088e-06, No Iterations 4
ExecutionTime = 1.64 s  ClockTime = 2 s

Time = 0.3

Courant Number mean: 0.023423 max: 0.0265348
smoothSolver:  Solving for Ux, Initial residual = 0.000948389, Final residual = 5.36736e-06, No Iterations 3
smoothSolver:  Solving for Uy, Initial residual = 0.014756, Final residual = 3.69184e-06, No Iterations 6
smoothSolver:  Solving for Uz, Initial residual = 0.0660816, Final residual = 7.34205e-06, No Iterations 6
Pressure gradient source: uncorrected Ubar = 0.389999, pressure gradient = 0.00239469
GAMG:  Solving for p, Initial residual = 0.018463, Final residual = 0.0017895, No Iterations 38
time step continuity errors : sum local = 8.54094e-09, global = -4.8087e-20, cumulative = 6.23758e-19
Pressure gradient source: uncorrected Ubar = 0.389999, pressure gradient = 0.00239647
GAMG:  Solving for p, Initial residual = 0.00508736, Final residual = 9.68895e-07, No Iterations 187
time step continuity errors : sum local = 4.01412e-12, global = -1.81564e-20, cumulative = 6.05602e-19
Pressure gradient source: uncorrected Ubar = 0.389999, pressure gradient = 0.00239729
smoothSolver:  Solving for omega, Initial residual = 0.000422242, Final residual = 3.27136e-06, No Iterations 2
smoothSolver:  Solving for k, Initial residual = 0.0134182, Final residual = 1.86518e-06, No Iterations 4
ExecutionTime = 1.92 s  ClockTime = 2 s

Time = 0.35

Courant Number mean: 0.0234219 max: 0.0265367
smoothSolver:  Solving for Ux, Initial residual = 0.000903073, Final residual = 5.83693e-06, No Iterations 3
smoothSolver:  Solving for Uy, Initial residual = 0.0155211, Final residual = 4.01892e-06, No Iterations 6
smoothSolver:  Solving for Uz, Initial residual = 0.0466321, Final residual = 6.57209e-06, No Iterations 6
Pressure gradient source: uncorrected Ubar = 0.389999, pressure gradient = 0.00242684
GAMG:  Solving for p, Initial residual = 0.0184091, Final residual = 0.0018098, No Iterations 36
time step continuity errors : sum local = 7.3208e-09, global = -6.07637e-20, cumulative = 5.44838e-19
Pressure gradient source: uncorrected Ubar = 0.389999, pressure gradient = 0.00242769
GAMG:  Solving for p, Initial residual = 0.00499239, Final residual = 9.50887e-07, No Iterations 187
time step continuity errors : sum local = 3.34755e-12, global = -7.56353e-20, cumulative = 4.69203e-19
Pressure gradient source: uncorrected Ubar = 0.389999, pressure gradient = 0.00242902
smoothSolver:  Solving for omega, Initial residual = 0.000465792, Final residual = 3.889e-06, No Iterations 2
smoothSolver:  Solving for k, Initial residual = 0.0124951, Final residual = 2.33751e-06, No Iterations 4
ExecutionTime = 2.2 s  ClockTime = 2 s

Time = 0.4

Courant Number mean: 0.0234209 max: 0.0265386
smoothSolver:  Solving for Ux, Initial residual = 0.000865994, Final residual = 6.54373e-06, No Iterations 3
smoothSolver:  Solving for Uy, Initial residual = 0.0161433, Final residual = 4.3136e-06, No Iterations 6
smoothSolver:  Solving for Uz, Initial residual = 0.0393603, Final residual = 7.93557e-06, No Iterations 6
Pressure gradient source: uncorrected Ubar = 0.389999, pressure gradient = 0.0024631
GAMG:  Solving for p, Initial residual = 0.0184204, Final residual = 0.0018257, No Iterations 35
time step continuity errors : sum local = 6.2588e-09, global = -2.86138e-20, cumulative = 4.40589e-19
Pressure gradient source: uncorrected Ubar = 0.389999, pressure gradient = 0.00246501
GAMG:  Solving for p, Initial residual = 0.0050299, Final residual = 9.57579e-07, No Iterations 186
time step continuity errors : sum local = 2.874e-12, global = -2.32507e-19, cumulative = 2.08082e-19
Pressure gradient source: uncorrected Ubar = 0.389999, pressure gradient = 0.00246699
smoothSolver:  Solving for omega, Initial residual = 0.000491398, Final residual = 4.31528e-06, No Iterations 2
smoothSolver:  Solving for k, Initial residual = 0.0115571, Final residual = 2.85409e-06, No Iterations 4
ExecutionTime = 2.48 s  ClockTime = 3 s

Time = 0.45

Courant Number mean: 0.0234201 max: 0.0265403
smoothSolver:  Solving for Ux, Initial residual = 0.000827555, Final residual = 7.32757e-06, No Iterations 3
smoothSolver:  Solving for Uy, Initial residual = 0.016585, Final residual = 4.56422e-06, No Iterations 6
smoothSolver:  Solving for Uz, Initial residual = 0.0361897, Final residual = 8.91359e-06, No Iterations 6
Pressure gradient source: uncorrected Ubar = 0.389999, pressure gradient = 0.00249937
GAMG:  Solving for p, Initial residual = 0.019718, Final residual = 0.00195844, No Iterations 32
time step continuity errors : sum local = 5.74122e-09, global = 1.60322e-20, cumulative = 2.24114e-19
Pressure gradient source: uncorrected Ubar = 0.389999, pressure gradient = 0.00250348
GAMG:  Solving for p, Initial residual = 0.00539619, Final residual = 9.4943e-07, No Iterations 185
time step continuity errors : sum local = 2.43656e-12, global = -6.63121e-20, cumulative = 1.57802e-19
Pressure gradient source: uncorrected Ubar = 0.389999, pressure gradient = 0.00250619
smoothSolver:  Solving for omega, Initial residual = 0.000489057, Final residual = 4.51035e-06, No Iterations 2
smoothSolver:  Solving for k, Initial residual = 0.0106489, Final residual = 3.38865e-06, No Iterations 4
ExecutionTime = 2.75 s  ClockTime = 3 s

Time = 0.5

Courant Number mean: 0.0234193 max: 0.026542
smoothSolver:  Solving for Ux, Initial residual = 0.000787981, Final residual = 8.01681e-06, No Iterations 3
smoothSolver:  Solving for Uy, Initial residual = 0.0168147, Final residual = 4.74575e-06, No Iterations 6
smoothSolver:  Solving for Uz, Initial residual = 0.0347273, Final residual = 9.32657e-06, No Iterations 6
Pressure gradient source: uncorrected Ubar = 0.389999, pressure gradient = 0.00253299
GAMG:  Solving for p, Initial residual = 0.0221226, Final residual = 0.0021784, No Iterations 29
time step continuity errors : sum local = 5.44851e-09, global = 2.93311e-21, cumulative = 1.60735e-19
Pressure gradient source: uncorrected Ubar = 0.389999, pressure gradient = 0.00253987
GAMG:  Solving for p, Initial residual = 0.00607123, Final residual = 9.85268e-07, No Iterations 186
time step continuity errors : sum local = 2.16249e-12, global = 2.65479e-20, cumulative = 1.87283e-19
Pressure gradient source: uncorrected Ubar = 0.389999, pressure gradient = 0.00254329
smoothSolver:  Solving for omega, Initial residual = 0.000465859, Final residual = 4.51121e-06, No Iterations 2
smoothSolver:  Solving for k, Initial residual = 0.00979688, Final residual = 3.90495e-06, No Iterations 4
ExecutionTime = 3.04 s  ClockTime = 3 s

Time = 0.55

Courant Number mean: 0.0234186 max: 0.0265438
smoothSolver:  Solving for Ux, Initial residual = 0.000748321, Final residual = 8.55347e-06, No Iterations 3
smoothSolver:  Solving for Uy, Initial residual = 0.0169963, Final residual = 4.89421e-06, No Iterations 6
smoothSolver:  Solving for Uz, Initial residual = 0.0336274, Final residual = 9.01819e-06, No Iterations 6
Pressure gradient source: uncorrected Ubar = 0.389999, pressure gradient = 0.00256276
GAMG:  Solving for p, Initial residual = 0.0215856, Final residual = 0.00212121, No Iterations 29
time step continuity errors : sum local = 4.52252e-09, global = 2.2879e-20, cumulative = 2.10162e-19
Pressure gradient source: uncorrected Ubar = 0.389999, pressure gradient = 0.0025724
GAMG:  Solving for p, Initial residual = 0.00635543, Final residual = 9.90203e-07, No Iterations 184
time step continuity errors : sum local = 1.85404e-12, global = -4.64407e-20, cumulative = 1.63721e-19
Pressure gradient source: uncorrected Ubar = 0.389999, pressure gradient = 0.00257647
smoothSolver:  Solving for omega, Initial residual = 0.000429964, Final residual = 4.54192e-06, No Iterations 2
smoothSolver:  Solving for k, Initial residual = 0.00905843, Final residual = 4.3902e-06, No Iterations 4
ExecutionTime = 3.34 s  ClockTime = 3 s

Time = 0.6

Courant Number mean: 0.023418 max: 0.0265456
smoothSolver:  Solving for Ux, Initial residual = 0.000710976, Final residual = 8.9123e-06, No Iterations 3
smoothSolver:  Solving for Uy, Initial residual = 0.0170645, Final residual = 5.01962e-06, No Iterations 6
smoothSolver:  Solving for Uz, Initial residual = 0.0323578, Final residual = 8.11778e-06, No Iterations 6
Pressure gradient source: uncorrected Ubar = 0.39, pressure gradient = 0.00258824
GAMG:  Solving for p, Initial residual = 0.0220299, Final residual = 0.00219236, No Iterations 28
time step continuity errors : sum local = 4.0065e-09, global = -6.57309e-20, cumulative = 9.79906e-20
Pressure gradient source: uncorrected Ubar = 0.389999, pressure gradient = 0.00260036
GAMG:  Solving for p, Initial residual = 0.00651969, Final residual = 9.57941e-07, No Iterations 183
time step continuity errors : sum local = 1.53319e-12, global = 4.71211e-20, cumulative = 1.45112e-19
Pressure gradient source: uncorrected Ubar = 0.389999, pressure gradient = 0.00260497
smoothSolver:  Solving for omega, Initial residual = 0.000386356, Final residual = 4.55777e-06, No Iterations 2
smoothSolver:  Solving for k, Initial residual = 0.00842708, Final residual = 4.80777e-06, No Iterations 4
ExecutionTime = 3.61 s  ClockTime = 4 s

Time = 0.65

Courant Number mean: 0.0234174 max: 0.0265474
smoothSolver:  Solving for Ux, Initial residual = 0.000676026, Final residual = 9.11553e-06, No Iterations 3
smoothSolver:  Solving for Uy, Initial residual = 0.0170848, Final residual = 5.12175e-06, No Iterations 6
smoothSolver:  Solving for Uz, Initial residual = 0.0310458, Final residual = 7.17452e-06, No Iterations 6
Pressure gradient source: uncorrected Ubar = 0.39, pressure gradient = 0.00260955
GAMG:  Solving for p, Initial residual = 0.021434, Final residual = 0.00207567, No Iterations 29
time step continuity errors : sum local = 3.23552e-09, global = 3.31965e-20, cumulative = 1.78308e-19
Pressure gradient source: uncorrected Ubar = 0.389999, pressure gradient = 0.00262372
GAMG:  Solving for p, Initial residual = 0.00655539, Final residual = 9.85314e-07, No Iterations 182
time step continuity errors : sum local = 1.34419e-12, global = 5.19299e-20, cumulative = 2.30238e-19
Pressure gradient source: uncorrected Ubar = 0.389999, pressure gradient = 0.00262875
smoothSolver:  Solving for omega, Initial residual = 0.000344625, Final residual = 4.45234e-06, No Iterations 2
smoothSolver:  Solving for k, Initial residual = 0.00793644, Final residual = 5.13861e-06, No Iterations 4
ExecutionTime = 3.88 s  ClockTime = 4 s

Time = 0.7

Courant Number mean: 0.0234169 max: 0.0265493
smoothSolver:  Solving for Ux, Initial residual = 0.000642354, Final residual = 9.21183e-06, No Iterations 3
smoothSolver:  Solving for Uy, Initial residual = 0.0170756, Final residual = 5.20606e-06, No Iterations 6
smoothSolver:  Solving for Uz, Initial residual = 0.0296028, Final residual = 6.11862e-06, No Iterations 6
Pressure gradient source: uncorrected Ubar = 0.39, pressure gradient = 0.00262715
GAMG:  Solving for p, Initial residual = 0.0225656, Final residual = 0.00225364, No Iterations 27
time step continuity errors : sum local = 3.00139e-09, global = -4.38134e-20, cumulative = 1.86425e-19
Pressure gradient source: uncorrected Ubar = 0.389999, pressure gradient = 0.00264288
GAMG:  Solving for p, Initial residual = 0.0067058, Final residual = 9.46835e-07, No Iterations 184
time step continuity errors : sum local = 1.10323e-12, global = 1.85776e-19, cumulative = 3.722e-19
Pressure gradient source: uncorrected Ubar = 0.389999, pressure gradient = 0.00264822
smoothSolver:  Solving for omega, Initial residual = 0.000307866, Final residual = 4.24306e-06, No Iterations 2
smoothSolver:  Solving for k, Initial residual = 0.00755584, Final residual = 5.36703e-06, No Iterations 4
ExecutionTime = 4.14 s  ClockTime = 4 s

Time = 0.75

Courant Number mean: 0.0234164 max: 0.0265512
smoothSolver:  Solving for Ux, Initial residual = 0.000610471, Final residual = 9.20698e-06, No Iterations 3
smoothSolver:  Solving for Uy, Initial residual = 0.0169856, Final residual = 5.25611e-06, No Iterations 6
smoothSolver:  Solving for Uz, Initial residual = 0.0281279, Final residual = 5.40553e-06, No Iterations 6
Pressure gradient source: uncorrected Ubar = 0.39, pressure gradient = 0.00264158
GAMG:  Solving for p, Initial residual = 0.0233307, Final residual = 0.00231941, No Iterations 27
time step continuity errors : sum local = 2.62978e-09, global = 7.50616e-21, cumulative = 3.79707e-19
Pressure gradient source: uncorrected Ubar = 0.39, pressure gradient = 0.00265843
GAMG:  Solving for p, Initial residual = 0.0070551, Final residual = 9.57279e-07, No Iterations 184
time step continuity errors : sum local = 9.42539e-13, global = -6.22483e-20, cumulative = 3.17458e-19
Pressure gradient source: uncorrected Ubar = 0.389999, pressure gradient = 0.00266397
smoothSolver:  Solving for omega, Initial residual = 0.000273423, Final residual = 4.09593e-06, No Iterations 2
smoothSolver:  Solving for k, Initial residual = 0.00721837, Final residual = 5.4998e-06, No Iterations 4
ExecutionTime = 4.41 s  ClockTime = 5 s

Time = 0.8

Courant Number mean: 0.0234159 max: 0.0265531
smoothSolver:  Solving for Ux, Initial residual = 0.000581208, Final residual = 9.11807e-06, No Iterations 3
smoothSolver:  Solving for Uy, Initial residual = 0.0169095, Final residual = 5.31849e-06, No Iterations 6
smoothSolver:  Solving for Uz, Initial residual = 0.0267014, Final residual = 4.81448e-06, No Iterations 6
Pressure gradient source: uncorrected Ubar = 0.39, pressure gradient = 0.00265343
GAMG:  Solving for p, Initial residual = 0.0253994, Final residual = 0.00249698, No Iterations 26
time step continuity errors : sum local = 2.39441e-09, global = -8.55994e-20, cumulative = 2.31859e-19
Pressure gradient source: uncorrected Ubar = 0.39, pressure gradient = 0.00267101
GAMG:  Solving for p, Initial residual = 0.00746575, Final residual = 9.24545e-07, No Iterations 173
time step continuity errors : sum local = 7.6264e-13, global = 3.93607e-20, cumulative = 2.7122e-19
Pressure gradient source: uncorrected Ubar = 0.39, pressure gradient = 0.00267667
smoothSolver:  Solving for omega, Initial residual = 0.000241678, Final residual = 3.9662e-06, No Iterations 2
smoothSolver:  Solving for k, Initial residual = 0.00688547, Final residual = 5.54569e-06, No Iterations 4
ExecutionTime = 4.66 s  ClockTime = 5 s

Time = 0.85

Courant Number mean: 0.0234155 max: 0.026555
smoothSolver:  Solving for Ux, Initial residual = 0.00055487, Final residual = 8.98966e-06, No Iterations 3
smoothSolver:  Solving for Uy, Initial residual = 0.0168439, Final residual = 5.3725e-06, No Iterations 6
smoothSolver:  Solving for Uz, Initial residual = 0.0253704, Final residual = 4.42813e-06, No Iterations 6
Pressure gradient source: uncorrected Ubar = 0.39, pressure gradient = 0.00266316
GAMG:  Solving for p, Initial residual = 0.0288715, Final residual = 0.00272953, No Iterations 25
time step continuity errors : sum local = 2.18574e-09, global = 1.78951e-19, cumulative = 4.50171e-19
Pressure gradient source: uncorrected Ubar = 0.39, pressure gradient = 0.00268119
GAMG:  Solving for p, Initial residual = 0.0081764, Final residual = 9.51562e-07, No Iterations 186
time step continuity errors : sum local = 6.53223e-13, global = 4.19647e-20, cumulative = 4.92136e-19
Pressure gradient source: uncorrected Ubar = 0.39, pressure gradient = 0.0026869
[hyd37:81888] 2 more processes have sent help message help-mpi-btl-base.txt / btl:no-nics
[hyd37:81888] Set MCA parameter "orte_base_help_aggregate" to 0 to see all help / error messages
smoothSolver:  Solving for omega, Initial residual = 0.000214131, Final residual = 3.78263e-06, No Iterations 2
smoothSolver:  Solving for k, Initial residual = 0.00656431, Final residual = 5.5182e-06, No Iterations 4
ExecutionTime = 4.92 s  ClockTime = 5 s

Time = 0.9

Courant Number mean: 0.0234151 max: 0.0265571
smoothSolver:  Solving for Ux, Initial residual = 0.000531094, Final residual = 8.83606e-06, No Iterations 3
smoothSolver:  Solving for Uy, Initial residual = 0.0167066, Final residual = 5.38387e-06, No Iterations 6
smoothSolver:  Solving for Uz, Initial residual = 0.0241474, Final residual = 4.20406e-06, No Iterations 6
Pressure gradient source: uncorrected Ubar = 0.390001, pressure gradient = 0.00267121
GAMG:  Solving for p, Initial residual = 0.0332208, Final residual = 0.00316998, No Iterations 23
time step continuity errors : sum local = 2.10527e-09, global = -1.31682e-20, cumulative = 4.78967e-19
Pressure gradient source: uncorrected Ubar = 0.39, pressure gradient = 0.00268948
GAMG:  Solving for p, Initial residual = 0.00925224, Final residual = 9.79726e-07, No Iterations 188
time step continuity errors : sum local = 5.5261e-13, global = 1.52018e-19, cumulative = 6.30985e-19
Pressure gradient source: uncorrected Ubar = 0.39, pressure gradient = 0.00269519
smoothSolver:  Solving for omega, Initial residual = 0.000192246, Final residual = 3.54531e-06, No Iterations 2
smoothSolver:  Solving for k, Initial residual = 0.00626498, Final residual = 5.44348e-06, No Iterations 4
ExecutionTime = 5.19 s  ClockTime = 5 s

Time = 0.95

Courant Number mean: 0.0234147 max: 0.0265592
smoothSolver:  Solving for Ux, Initial residual = 0.000509602, Final residual = 8.65934e-06, No Iterations 3
smoothSolver:  Solving for Uy, Initial residual = 0.0165835, Final residual = 5.4253e-06, No Iterations 6
smoothSolver:  Solving for Uz, Initial residual = 0.0230945, Final residual = 4.04825e-06, No Iterations 6
Pressure gradient source: uncorrected Ubar = 0.390001, pressure gradient = 0.00267799
GAMG:  Solving for p, Initial residual = 0.0364591, Final residual = 0.00359424, No Iterations 22
time step continuity errors : sum local = 1.95e-09, global = -3.84512e-20, cumulative = 5.92534e-19
Pressure gradient source: uncorrected Ubar = 0.39, pressure gradient = 0.00269632
GAMG:  Solving for p, Initial residual = 0.0106676, Final residual = 9.91765e-07, No Iterations 186
time step continuity errors : sum local = 4.52288e-13, global = 1.62973e-19, cumulative = 7.55508e-19
Pressure gradient source: uncorrected Ubar = 0.39, pressure gradient = 0.00270199
smoothSolver:  Solving for omega, Initial residual = 0.000173224, Final residual = 3.30342e-06, No Iterations 2
smoothSolver:  Solving for k, Initial residual = 0.00599386, Final residual = 5.32135e-06, No Iterations 4
ExecutionTime = 5.45 s  ClockTime = 6 s

Time = 1

Courant Number mean: 0.0234143 max: 0.0265614
smoothSolver:  Solving for Ux, Initial residual = 0.000490234, Final residual = 8.48681e-06, No Iterations 3
smoothSolver:  Solving for Uy, Initial residual = 0.0164002, Final residual = 5.41861e-06, No Iterations 6
smoothSolver:  Solving for Uz, Initial residual = 0.0226341, Final residual = 3.96926e-06, No Iterations 6
Pressure gradient source: uncorrected Ubar = 0.390001, pressure gradient = 0.00268371
GAMG:  Solving for p, Initial residual = 0.0469306, Final residual = 0.00438391, No Iterations 21
time step continuity errors : sum local = 1.90667e-09, global = 1.21666e-20, cumulative = 7.67674e-19
Pressure gradient source: uncorrected Ubar = 0.39, pressure gradient = 0.00270201
GAMG:  Solving for p, Initial residual = 0.0109022, Final residual = 9.69862e-07, No Iterations 188
time step continuity errors : sum local = 4.15877e-13, global = 1.0306e-19, cumulative = 8.70734e-19
Pressure gradient source: uncorrected Ubar = 0.39, pressure gradient = 0.00270762
smoothSolver:  Solving for omega, Initial residual = 0.000156722, Final residual = 3.12541e-06, No Iterations 2
smoothSolver:  Solving for k, Initial residual = 0.00574408, Final residual = 5.17021e-06, No Iterations 4
ExecutionTime = 5.72 s  ClockTime = 6 s

Time = 1.05

Courant Number mean: 0.023414 max: 0.0265635
smoothSolver:  Solving for Ux, Initial residual = 0.000472459, Final residual = 8.31269e-06, No Iterations 3
smoothSolver:  Solving for Uy, Initial residual = 0.0162105, Final residual = 5.39207e-06, No Iterations 6
smoothSolver:  Solving for Uz, Initial residual = 0.0218668, Final residual = 3.92161e-06, No Iterations 6
Pressure gradient source: uncorrected Ubar = 0.390001, pressure gradient = 0.00268863
GAMG:  Solving for p, Initial residual = 0.043205, Final residual = 0.004212, No Iterations 20
time step continuity errors : sum local = 1.85022e-09, global = -6.41184e-21, cumulative = 8.64322e-19
Pressure gradient source: uncorrected Ubar = 0.39, pressure gradient = 0.00270682
GAMG:  Solving for p, Initial residual = 0.00951487, Final residual = 9.62173e-07, No Iterations 178
time step continuity errors : sum local = 4.65863e-13, global = 2.13812e-20, cumulative = 8.85704e-19
Pressure gradient source: uncorrected Ubar = 0.39, pressure gradient = 0.00271236
smoothSolver:  Solving for omega, Initial residual = 0.000142165, Final residual = 2.94366e-06, No Iterations 2
smoothSolver:  Solving for k, Initial residual = 0.00551129, Final residual = 5.00262e-06, No Iterations 4
ExecutionTime = 5.97 s  ClockTime = 6 s

Time = 1.1

Courant Number mean: 0.0234136 max: 0.0265656
smoothSolver:  Solving for Ux, Initial residual = 0.000456258, Final residual = 8.13887e-06, No Iterations 3
smoothSolver:  Solving for Uy, Initial residual = 0.0160079, Final residual = 5.36709e-06, No Iterations 6
smoothSolver:  Solving for Uz, Initial residual = 0.0213546, Final residual = 3.83253e-06, No Iterations 6
Pressure gradient source: uncorrected Ubar = 0.390001, pressure gradient = 0.00269293
GAMG:  Solving for p, Initial residual = 0.0345967, Final residual = 0.00335006, No Iterations 20
time step continuity errors : sum local = 1.64837e-09, global = -3.91283e-20, cumulative = 8.46575e-19
Pressure gradient source: uncorrected Ubar = 0.39, pressure gradient = 0.00271097
GAMG:  Solving for p, Initial residual = 0.00811011, Final residual = 9.86083e-07, No Iterations 160
time step continuity errors : sum local = 5.24645e-13, global = 4.35587e-20, cumulative = 8.90134e-19
Pressure gradient source: uncorrected Ubar = 0.39, pressure gradient = 0.00271642
smoothSolver:  Solving for omega, Initial residual = 0.000129522, Final residual = 2.75761e-06, No Iterations 2
smoothSolver:  Solving for k, Initial residual = 0.0052898, Final residual = 4.82537e-06, No Iterations 4
ExecutionTime = 6.2 s  ClockTime = 6 s

Time = 1.15

Courant Number mean: 0.0234133 max: 0.0265678
smoothSolver:  Solving for Ux, Initial residual = 0.000441457, Final residual = 7.97489e-06, No Iterations 3
smoothSolver:  Solving for Uy, Initial residual = 0.0158003, Final residual = 5.33169e-06, No Iterations 6
smoothSolver:  Solving for Uz, Initial residual = 0.0207374, Final residual = 3.73582e-06, No Iterations 6
Pressure gradient source: uncorrected Ubar = 0.390001, pressure gradient = 0.00269672
GAMG:  Solving for p, Initial residual = 0.0306373, Final residual = 0.00304595, No Iterations 19
time step continuity errors : sum local = 1.63177e-09, global = 4.32372e-20, cumulative = 9.33371e-19
Pressure gradient source: uncorrected Ubar = 0.39, pressure gradient = 0.00271457
GAMG:  Solving for p, Initial residual = 0.00715872, Final residual = 9.39188e-07, No Iterations 146
time step continuity errors : sum local = 5.31283e-13, global = 1.29336e-19, cumulative = 1.06271e-18
Pressure gradient source: uncorrected Ubar = 0.39, pressure gradient = 0.00271995
smoothSolver:  Solving for omega, Initial residual = 0.00011926, Final residual = 2.5629e-06, No Iterations 2
smoothSolver:  Solving for k, Initial residual = 0.00507953, Final residual = 4.63251e-06, No Iterations 4
ExecutionTime = 6.42 s  ClockTime = 7 s

Time = 1.2

Courant Number mean: 0.0234129 max: 0.0265699
smoothSolver:  Solving for Ux, Initial residual = 0.000428078, Final residual = 7.82194e-06, No Iterations 3
smoothSolver:  Solving for Uy, Initial residual = 0.0155995, Final residual = 5.30718e-06, No Iterations 6
smoothSolver:  Solving for Uz, Initial residual = 0.0201192, Final residual = 3.75494e-06, No Iterations 6
Pressure gradient source: uncorrected Ubar = 0.390001, pressure gradient = 0.00270011
GAMG:  Solving for p, Initial residual = 0.0271783, Final residual = 0.00267842, No Iterations 19
time step continuity errors : sum local = 1.53717e-09, global = 2.41539e-19, cumulative = 1.30425e-18
Pressure gradient source: uncorrected Ubar = 0.39, pressure gradient = 0.00271776
GAMG:  Solving for p, Initial residual = 0.00647563, Final residual = 9.89966e-07, No Iterations 170
time step continuity errors : sum local = 6.05056e-13, global = 9.41599e-20, cumulative = 1.39841e-18
Pressure gradient source: uncorrected Ubar = 0.39, pressure gradient = 0.00272305
smoothSolver:  Solving for omega, Initial residual = 0.000110587, Final residual = 2.37773e-06, No Iterations 2
smoothSolver:  Solving for k, Initial residual = 0.00488527, Final residual = 4.43984e-06, No Iterations 4
ExecutionTime = 6.66 s  ClockTime = 7 s

Time = 1.25

Courant Number mean: 0.0234126 max: 0.0265721
smoothSolver:  Solving for Ux, Initial residual = 0.000415681, Final residual = 7.67817e-06, No Iterations 3
smoothSolver:  Solving for Uy, Initial residual = 0.0154457, Final residual = 5.30713e-06, No Iterations 6
smoothSolver:  Solving for Uz, Initial residual = 0.0197041, Final residual = 3.68667e-06, No Iterations 6
Pressure gradient source: uncorrected Ubar = 0.390001, pressure gradient = 0.00270317
GAMG:  Solving for p, Initial residual = 0.0243629, Final residual = 0.00222461, No Iterations 20
time step continuity errors : sum local = 1.3487e-09, global = -2.39427e-21, cumulative = 1.39601e-18
Pressure gradient source: uncorrected Ubar = 0.39, pressure gradient = 0.00272062
GAMG:  Solving for p, Initial residual = 0.00565845, Final residual = 9.82976e-07, No Iterations 179
time step continuity errors : sum local = 6.34412e-13, global = 1.19354e-19, cumulative = 1.51537e-18
Pressure gradient source: uncorrected Ubar = 0.39, pressure gradient = 0.00272583
smoothSolver:  Solving for omega, Initial residual = 0.000102901, Final residual = 2.21016e-06, No Iterations 2
smoothSolver:  Solving for k, Initial residual = 0.00470568, Final residual = 4.24953e-06, No Iterations 4
ExecutionTime = 6.92 s  ClockTime = 7 s

Time = 1.3

Courant Number mean: 0.0234123 max: 0.0265743
smoothSolver:  Solving for Ux, Initial residual = 0.000404139, Final residual = 7.54122e-06, No Iterations 3
smoothSolver:  Solving for Uy, Initial residual = 0.0153054, Final residual = 5.26966e-06, No Iterations 6
smoothSolver:  Solving for Uz, Initial residual = 0.0192675, Final residual = 3.64658e-06, No Iterations 6
Pressure gradient source: uncorrected Ubar = 0.390001, pressure gradient = 0.00270595
GAMG:  Solving for p, Initial residual = 0.0217622, Final residual = 0.00205747, No Iterations 20
time step continuity errors : sum local = 1.29903e-09, global = 1.09798e-19, cumulative = 1.62516e-18
Pressure gradient source: uncorrected Ubar = 0.39, pressure gradient = 0.00272321
GAMG:  Solving for p, Initial residual = 0.00500845, Final residual = 9.73696e-07, No Iterations 184
time step continuity errors : sum local = 6.53803e-13, global = 9.48357e-20, cumulative = 1.72e-18
Pressure gradient source: uncorrected Ubar = 0.39, pressure gradient = 0.00272834
smoothSolver:  Solving for omega, Initial residual = 9.60298e-05, Final residual = 2.05994e-06, No Iterations 2
smoothSolver:  Solving for k, Initial residual = 0.0045667, Final residual = 4.06739e-06, No Iterations 4
ExecutionTime = 7.18 s  ClockTime = 7 s

Time = 1.35

Courant Number mean: 0.023412 max: 0.0265764
smoothSolver:  Solving for Ux, Initial residual = 0.000393416, Final residual = 7.41277e-06, No Iterations 3
smoothSolver:  Solving for Uy, Initial residual = 0.015236, Final residual = 5.24852e-06, No Iterations 6
smoothSolver:  Solving for Uz, Initial residual = 0.0189353, Final residual = 3.64059e-06, No Iterations 6
Pressure gradient source: uncorrected Ubar = 0.390001, pressure gradient = 0.00270851
GAMG:  Solving for p, Initial residual = 0.0197929, Final residual = 0.00195861, No Iterations 21
time step continuity errors : sum local = 1.27508e-09, global = 7.49129e-20, cumulative = 1.79491e-18
Pressure gradient source: uncorrected Ubar = 0.39, pressure gradient = 0.00272558
GAMG:  Solving for p, Initial residual = 0.00458739, Final residual = 9.88112e-07, No Iterations 186
time step continuity errors : sum local = 6.82846e-13, global = 6.19975e-21, cumulative = 1.80111e-18
Pressure gradient source: uncorrected Ubar = 0.39, pressure gradient = 0.00273063
smoothSolver:  Solving for omega, Initial residual = 8.99131e-05, Final residual = 1.92448e-06, No Iterations 2
smoothSolver:  Solving for k, Initial residual = 0.00444796, Final residual = 3.89126e-06, No Iterations 4
ExecutionTime = 7.44 s  ClockTime = 8 s

Time = 1.4

Courant Number mean: 0.0234117 max: 0.0265786
smoothSolver:  Solving for Ux, Initial residual = 0.000383552, Final residual = 7.28811e-06, No Iterations 3
smoothSolver:  Solving for Uy, Initial residual = 0.0151614, Final residual = 5.25001e-06, No Iterations 6
smoothSolver:  Solving for Uz, Initial residual = 0.0183545, Final residual = 3.61882e-06, No Iterations 6
Pressure gradient source: uncorrected Ubar = 0.390001, pressure gradient = 0.00271089
GAMG:  Solving for p, Initial residual = 0.0180166, Final residual = 0.00178714, No Iterations 22
time step continuity errors : sum local = 1.20238e-09, global = -5.6103e-20, cumulative = 1.74501e-18
Pressure gradient source: uncorrected Ubar = 0.39, pressure gradient = 0.00272777
GAMG:  Solving for p, Initial residual = 0.00430494, Final residual = 9.64487e-07, No Iterations 187
time step continuity errors : sum local = 6.82364e-13, global = 1.16572e-19, cumulative = 1.86158e-18
Pressure gradient source: uncorrected Ubar = 0.39, pressure gradient = 0.00273275
smoothSolver:  Solving for omega, Initial residual = 8.44814e-05, Final residual = 9.98374e-06, No Iterations 1
smoothSolver:  Solving for k, Initial residual = 0.00434239, Final residual = 3.74286e-06, No Iterations 4
ExecutionTime = 7.7 s  ClockTime = 8 s

Time = 1.45

Courant Number mean: 0.0234114 max: 0.0265809
smoothSolver:  Solving for Ux, Initial residual = 0.000374471, Final residual = 7.15993e-06, No Iterations 3
smoothSolver:  Solving for Uy, Initial residual = 0.0151154, Final residual = 5.22728e-06, No Iterations 6
smoothSolver:  Solving for Uz, Initial residual = 0.0177479, Final residual = 3.62207e-06, No Iterations 6
Pressure gradient source: uncorrected Ubar = 0.390001, pressure gradient = 0.00271315
GAMG:  Solving for p, Initial residual = 0.0168941, Final residual = 0.00164865, No Iterations 25
time step continuity errors : sum local = 1.14665e-09, global = -5.84993e-20, cumulative = 1.80308e-18
Pressure gradient source: uncorrected Ubar = 0.39, pressure gradient = 0.00272981
GAMG:  Solving for p, Initial residual = 0.00412549, Final residual = 9.78214e-07, No Iterations 186
time step continuity errors : sum local = 7.00109e-13, global = 1.06449e-19, cumulative = 1.90953e-18
Pressure gradient source: uncorrected Ubar = 0.39, pressure gradient = 0.00273471
smoothSolver:  Solving for omega, Initial residual = 8.19306e-05, Final residual = 9.74987e-06, No Iterations 1
smoothSolver:  Solving for k, Initial residual = 0.00425334, Final residual = 3.62284e-06, No Iterations 4
ExecutionTime = 7.97 s  ClockTime = 8 s

Time = 1.5

Courant Number mean: 0.0234111 max: 0.0265831
smoothSolver:  Solving for Ux, Initial residual = 0.000366287, Final residual = 7.04227e-06, No Iterations 3
smoothSolver:  Solving for Uy, Initial residual = 0.0151186, Final residual = 5.19672e-06, No Iterations 6
smoothSolver:  Solving for Uz, Initial residual = 0.016904, Final residual = 9.81577e-06, No Iterations 5
Pressure gradient source: uncorrected Ubar = 0.390001, pressure gradient = 0.00271523
GAMG:  Solving for p, Initial residual = 0.0162771, Final residual = 0.00157337, No Iterations 27
time step continuity errors : sum local = 1.11344e-09, global = 1.15531e-19, cumulative = 2.02506e-18
Pressure gradient source: uncorrected Ubar = 0.39, pressure gradient = 0.0027317
GAMG:  Solving for p, Initial residual = 0.00409311, Final residual = 9.9031e-07, No Iterations 186
time step continuity errors : sum local = 7.11602e-13, global = 8.62005e-20, cumulative = 2.11126e-18
Pressure gradient source: uncorrected Ubar = 0.39, pressure gradient = 0.00273652
smoothSolver:  Solving for omega, Initial residual = 7.85455e-05, Final residual = 9.38753e-06, No Iterations 1
smoothSolver:  Solving for k, Initial residual = 0.00416916, Final residual = 3.50754e-06, No Iterations 4
ExecutionTime = 8.23 s  ClockTime = 8 s

Time = 1.55

Courant Number mean: 0.0234108 max: 0.0265853
smoothSolver:  Solving for Ux, Initial residual = 0.000358863, Final residual = 6.933e-06, No Iterations 3
smoothSolver:  Solving for Uy, Initial residual = 0.0151089, Final residual = 5.14712e-06, No Iterations 6
smoothSolver:  Solving for Uz, Initial residual = 0.0161904, Final residual = 9.6555e-06, No Iterations 5
Pressure gradient source: uncorrected Ubar = 0.390001, pressure gradient = 0.00271716
GAMG:  Solving for p, Initial residual = 0.0157203, Final residual = 0.00152563, No Iterations 29
time step continuity errors : sum local = 1.07624e-09, global = -7.87616e-21, cumulative = 2.10339e-18
Pressure gradient source: uncorrected Ubar = 0.39, pressure gradient = 0.00273345
GAMG:  Solving for p, Initial residual = 0.00399405, Final residual = 9.93995e-07, No Iterations 185
time step continuity errors : sum local = 7.12802e-13, global = 1.11759e-19, cumulative = 2.21515e-18
Pressure gradient source: uncorrected Ubar = 0.39, pressure gradient = 0.0027382
smoothSolver:  Solving for omega, Initial residual = 7.51034e-05, Final residual = 8.99154e-06, No Iterations 1
smoothSolver:  Solving for k, Initial residual = 0.00408924, Final residual = 3.39382e-06, No Iterations 4
ExecutionTime = 8.5 s  ClockTime = 9 s

Time = 1.6

Courant Number mean: 0.0234105 max: 0.0265876
smoothSolver:  Solving for Ux, Initial residual = 0.000352027, Final residual = 6.83055e-06, No Iterations 3
smoothSolver:  Solving for Uy, Initial residual = 0.0151084, Final residual = 5.10878e-06, No Iterations 6
smoothSolver:  Solving for Uz, Initial residual = 0.0156215, Final residual = 9.43051e-06, No Iterations 5
Pressure gradient source: uncorrected Ubar = 0.390001, pressure gradient = 0.00271898
GAMG:  Solving for p, Initial residual = 0.0154357, Final residual = 0.00148498, No Iterations 29
time step continuity errors : sum local = 1.04498e-09, global = 8.36388e-20, cumulative = 2.29878e-18
Pressure gradient source: uncorrected Ubar = 0.39, pressure gradient = 0.0027351
GAMG:  Solving for p, Initial residual = 0.00386523, Final residual = 9.78001e-07, No Iterations 186
time step continuity errors : sum local = 6.9716e-13, global = 1.326e-19, cumulative = 2.43138e-18
Pressure gradient source: uncorrected Ubar = 0.39, pressure gradient = 0.00273979
smoothSolver:  Solving for omega, Initial residual = 7.18e-05, Final residual = 8.58922e-06, No Iterations 1
smoothSolver:  Solving for k, Initial residual = 0.00401684, Final residual = 3.28391e-06, No Iterations 4
ExecutionTime = 8.77 s  ClockTime = 9 s

Time = 1.65

Courant Number mean: 0.0234103 max: 0.0265898
smoothSolver:  Solving for Ux, Initial residual = 0.000345814, Final residual = 6.73572e-06, No Iterations 3
smoothSolver:  Solving for Uy, Initial residual = 0.0151545, Final residual = 5.1146e-06, No Iterations 6
smoothSolver:  Solving for Uz, Initial residual = 0.0153748, Final residual = 9.43606e-06, No Iterations 5
Pressure gradient source: uncorrected Ubar = 0.390001, pressure gradient = 0.0027207
GAMG:  Solving for p, Initial residual = 0.0147278, Final residual = 0.00144881, No Iterations 32
time step continuity errors : sum local = 1.01157e-09, global = 9.84843e-20, cumulative = 2.52987e-18
Pressure gradient source: uncorrected Ubar = 0.39, pressure gradient = 0.00273665
GAMG:  Solving for p, Initial residual = 0.00375043, Final residual = 9.84947e-07, No Iterations 183
time step continuity errors : sum local = 6.94574e-13, global = -1.03672e-19, cumulative = 2.4262e-18
Pressure gradient source: uncorrected Ubar = 0.39, pressure gradient = 0.00274128
smoothSolver:  Solving for omega, Initial residual = 6.86823e-05, Final residual = 8.20542e-06, No Iterations 1
smoothSolver:  Solving for k, Initial residual = 0.00395135, Final residual = 3.17857e-06, No Iterations 4
ExecutionTime = 9.04 s  ClockTime = 9 s

Time = 1.7

Courant Number mean: 0.02341 max: 0.0265921
smoothSolver:  Solving for Ux, Initial residual = 0.000339976, Final residual = 6.64561e-06, No Iterations 3
smoothSolver:  Solving for Uy, Initial residual = 0.0151516, Final residual = 5.13548e-06, No Iterations 6
smoothSolver:  Solving for Uz, Initial residual = 0.0151418, Final residual = 9.54722e-06, No Iterations 5
Pressure gradient source: uncorrected Ubar = 0.390001, pressure gradient = 0.00272233
GAMG:  Solving for p, Initial residual = 0.0158847, Final residual = 0.00158072, No Iterations 30
time step continuity errors : sum local = 1.09245e-09, global = 7.66761e-21, cumulative = 2.43386e-18
Pressure gradient source: uncorrected Ubar = 0.39, pressure gradient = 0.00273813
GAMG:  Solving for p, Initial residual = 0.00392531, Final residual = 9.72767e-07, No Iterations 186
time step continuity errors : sum local = 6.77479e-13, global = -8.36083e-20, cumulative = 2.35026e-18
Pressure gradient source: uncorrected Ubar = 0.39, pressure gradient = 0.0027427
smoothSolver:  Solving for omega, Initial residual = 6.57734e-05, Final residual = 7.85689e-06, No Iterations 1
smoothSolver:  Solving for k, Initial residual = 0.0038866, Final residual = 3.07565e-06, No Iterations 4
ExecutionTime = 9.31 s  ClockTime = 9 s

Time = 1.75

Courant Number mean: 0.0234098 max: 0.0265944
smoothSolver:  Solving for Ux, Initial residual = 0.000334382, Final residual = 6.56015e-06, No Iterations 3
smoothSolver:  Solving for Uy, Initial residual = 0.0151828, Final residual = 5.18707e-06, No Iterations 6
smoothSolver:  Solving for Uz, Initial residual = 0.014839, Final residual = 9.77337e-06, No Iterations 5
Pressure gradient source: uncorrected Ubar = 0.390001, pressure gradient = 0.00272388
GAMG:  Solving for p, Initial residual = 0.0168037, Final residual = 0.0016796, No Iterations 29
time step continuity errors : sum local = 1.14924e-09, global = 7.288e-20, cumulative = 2.42314e-18
Pressure gradient source: uncorrected Ubar = 0.39, pressure gradient = 0.00273954
GAMG:  Solving for p, Initial residual = 0.00393672, Final residual = 9.88468e-07, No Iterations 188
time step continuity errors : sum local = 6.80585e-13, global = -3.95551e-20, cumulative = 2.38358e-18
Pressure gradient source: uncorrected Ubar = 0.39, pressure gradient = 0.00274405
smoothSolver:  Solving for omega, Initial residual = 6.31067e-05, Final residual = 7.53756e-06, No Iterations 1
smoothSolver:  Solving for k, Initial residual = 0.00382294, Final residual = 2.97592e-06, No Iterations 4
ExecutionTime = 9.58 s  ClockTime = 10 s

Time = 1.8

Courant Number mean: 0.0234095 max: 0.0265967
smoothSolver:  Solving for Ux, Initial residual = 0.000328948, Final residual = 6.48052e-06, No Iterations 3
smoothSolver:  Solving for Uy, Initial residual = 0.0152279, Final residual = 5.26333e-06, No Iterations 6
smoothSolver:  Solving for Uz, Initial residual = 0.0148177, Final residual = 9.92284e-06, No Iterations 5
Pressure gradient source: uncorrected Ubar = 0.390001, pressure gradient = 0.00272538
GAMG:  Solving for p, Initial residual = 0.0155682, Final residual = 0.00150322, No Iterations 31
time step continuity errors : sum local = 1.01755e-09, global = -2.24608e-20, cumulative = 2.36112e-18
Pressure gradient source: uncorrected Ubar = 0.39, pressure gradient = 0.00274089
GAMG:  Solving for p, Initial residual = 0.00380048, Final residual = 9.96637e-07, No Iterations 185
time step continuity errors : sum local = 6.77003e-13, global = -1.47244e-20, cumulative = 2.3464e-18
Pressure gradient source: uncorrected Ubar = 0.39, pressure gradient = 0.00274535
smoothSolver:  Solving for omega, Initial residual = 6.06735e-05, Final residual = 7.24005e-06, No Iterations 1
smoothSolver:  Solving for k, Initial residual = 0.00376118, Final residual = 2.8777e-06, No Iterations 4
ExecutionTime = 9.85 s  ClockTime = 10 s

Time = 1.85

Courant Number mean: 0.0234093 max: 0.026599
smoothSolver:  Solving for Ux, Initial residual = 0.000323675, Final residual = 6.40403e-06, No Iterations 3
smoothSolver:  Solving for Uy, Initial residual = 0.0152922, Final residual = 5.33676e-06, No Iterations 6
smoothSolver:  Solving for Uz, Initial residual = 0.0148039, Final residual = 3.78887e-06, No Iterations 6
Pressure gradient source: uncorrected Ubar = 0.390001, pressure gradient = 0.00272681
GAMG:  Solving for p, Initial residual = 0.0134429, Final residual = 0.001298, No Iterations 35
time step continuity errors : sum local = 8.62921e-10, global = 4.33671e-20, cumulative = 2.38976e-18
Pressure gradient source: uncorrected Ubar = 0.39, pressure gradient = 0.00274218
GAMG:  Solving for p, Initial residual = 0.00345856, Final residual = 9.72717e-07, No Iterations 181
time step continuity errors : sum local = 6.48239e-13, global = 1.53212e-20, cumulative = 2.40508e-18
Pressure gradient source: uncorrected Ubar = 0.39, pressure gradient = 0.0027466
smoothSolver:  Solving for omega, Initial residual = 5.8459e-05, Final residual = 6.98574e-06, No Iterations 1
smoothSolver:  Solving for k, Initial residual = 0.00369915, Final residual = 2.78424e-06, No Iterations 4
ExecutionTime = 10.12 s  ClockTime = 10 s

Time = 1.9

Courant Number mean: 0.0234091 max: 0.0266013
smoothSolver:  Solving for Ux, Initial residual = 0.000318602, Final residual = 6.33035e-06, No Iterations 3
smoothSolver:  Solving for Uy, Initial residual = 0.0153328, Final residual = 5.42638e-06, No Iterations 6
smoothSolver:  Solving for Uz, Initial residual = 0.0146622, Final residual = 3.82463e-06, No Iterations 6
Pressure gradient source: uncorrected Ubar = 0.390001, pressure gradient = 0.0027282
GAMG:  Solving for p, Initial residual = 0.0122312, Final residual = 0.00121215, No Iterations 37
time step continuity errors : sum local = 7.90969e-10, global = 6.01061e-20, cumulative = 2.46519e-18
Pressure gradient source: uncorrected Ubar = 0.39, pressure gradient = 0.00274344
GAMG:  Solving for p, Initial residual = 0.0031331, Final residual = 9.54532e-07, No Iterations 179
time step continuity errors : sum local = 6.23341e-13, global = 1.67897e-19, cumulative = 2.63309e-18
Pressure gradient source: uncorrected Ubar = 0.39, pressure gradient = 0.00274781
smoothSolver:  Solving for omega, Initial residual = 5.6453e-05, Final residual = 6.75063e-06, No Iterations 1
smoothSolver:  Solving for k, Initial residual = 0.00363688, Final residual = 2.69806e-06, No Iterations 4
ExecutionTime = 10.39 s  ClockTime = 11 s

Time = 1.95

Courant Number mean: 0.0234088 max: 0.0266036
smoothSolver:  Solving for Ux, Initial residual = 0.000313729, Final residual = 6.26079e-06, No Iterations 3
smoothSolver:  Solving for Uy, Initial residual = 0.0153763, Final residual = 5.52059e-06, No Iterations 6
smoothSolver:  Solving for Uz, Initial residual = 0.0145274, Final residual = 3.84232e-06, No Iterations 6
Pressure gradient source: uncorrected Ubar = 0.390001, pressure gradient = 0.00272954
GAMG:  Solving for p, Initial residual = 0.0125533, Final residual = 0.00120832, No Iterations 37
time step continuity errors : sum local = 7.76017e-10, global = -1.02589e-19, cumulative = 2.5305e-18
Pressure gradient source: uncorrected Ubar = 0.39, pressure gradient = 0.00274465
GAMG:  Solving for p, Initial residual = 0.00312318, Final residual = 9.96316e-07, No Iterations 178
time step continuity errors : sum local = 6.3763e-13, global = 1.58612e-19, cumulative = 2.68911e-18
Pressure gradient source: uncorrected Ubar = 0.39, pressure gradient = 0.00274898
smoothSolver:  Solving for omega, Initial residual = 5.46069e-05, Final residual = 6.55145e-06, No Iterations 1
smoothSolver:  Solving for k, Initial residual = 0.00357475, Final residual = 2.60803e-06, No Iterations 4
ExecutionTime = 10.65 s  ClockTime = 11 s

Time = 2

Courant Number mean: 0.0234086 max: 0.026606
smoothSolver:  Solving for Ux, Initial residual = 0.000308977, Final residual = 6.19305e-06, No Iterations 3
smoothSolver:  Solving for Uy, Initial residual = 0.0154524, Final residual = 5.62082e-06, No Iterations 6
smoothSolver:  Solving for Uz, Initial residual = 0.0144665, Final residual = 3.85497e-06, No Iterations 6
Pressure gradient source: uncorrected Ubar = 0.390001, pressure gradient = 0.00273085
GAMG:  Solving for p, Initial residual = 0.0128861, Final residual = 0.00121835, No Iterations 37
time step continuity errors : sum local = 7.69071e-10, global = 1.35286e-19, cumulative = 2.82439e-18
Pressure gradient source: uncorrected Ubar = 0.39, pressure gradient = 0.00274582
GAMG:  Solving for p, Initial residual = 0.00303752, Final residual = 9.94206e-07, No Iterations 178
time step continuity errors : sum local = 6.25027e-13, global = 2.5212e-20, cumulative = 2.84961e-18
Pressure gradient source: uncorrected Ubar = 0.39, pressure gradient = 0.00275011
smoothSolver:  Solving for omega, Initial residual = 5.2907e-05, Final residual = 6.36819e-06, No Iterations 1
smoothSolver:  Solving for k, Initial residual = 0.00351265, Final residual = 2.52179e-06, No Iterations 4
ExecutionTime = 10.92 s  ClockTime = 11 s

Time = 2.05

Courant Number mean: 0.0234084 max: 0.0266084
smoothSolver:  Solving for Ux, Initial residual = 0.000304325, Final residual = 6.12755e-06, No Iterations 3
smoothSolver:  Solving for Uy, Initial residual = 0.015578, Final residual = 5.71866e-06, No Iterations 6
smoothSolver:  Solving for Uz, Initial residual = 0.0143374, Final residual = 3.83887e-06, No Iterations 6
Pressure gradient source: uncorrected Ubar = 0.390001, pressure gradient = 0.0027321
GAMG:  Solving for p, Initial residual = 0.01133, Final residual = 0.00107617, No Iterations 41
time step continuity errors : sum local = 6.63707e-10, global = 1.58334e-19, cumulative = 3.00794e-18
Pressure gradient source: uncorrected Ubar = 0.39, pressure gradient = 0.00274696
GAMG:  Solving for p, Initial residual = 0.00290872, Final residual = 9.77102e-07, No Iterations 173
time step continuity errors : sum local = 5.98068e-13, global = 2.4727e-20, cumulative = 3.03267e-18
Pressure gradient source: uncorrected Ubar = 0.39, pressure gradient = 0.0027512
smoothSolver:  Solving for omega, Initial residual = 5.13555e-05, Final residual = 6.19317e-06, No Iterations 1
smoothSolver:  Solving for k, Initial residual = 0.00345043, Final residual = 2.43439e-06, No Iterations 4
ExecutionTime = 11.19 s  ClockTime = 11 s

Time = 2.1

Courant Number mean: 0.0234082 max: 0.0266107
smoothSolver:  Solving for Ux, Initial residual = 0.000299806, Final residual = 6.06433e-06, No Iterations 3
smoothSolver:  Solving for Uy, Initial residual = 0.0156917, Final residual = 5.81559e-06, No Iterations 6
smoothSolver:  Solving for Uz, Initial residual = 0.0141807, Final residual = 3.81815e-06, No Iterations 6
Pressure gradient source: uncorrected Ubar = 0.390001, pressure gradient = 0.00273332
GAMG:  Solving for p, Initial residual = 0.0111483, Final residual = 0.00106718, No Iterations 41
time step continuity errors : sum local = 6.40923e-10, global = 4.3454e-20, cumulative = 3.07612e-18
Pressure gradient source: uncorrected Ubar = 0.39, pressure gradient = 0.00274806
GAMG:  Solving for p, Initial residual = 0.00288216, Final residual = 9.53457e-07, No Iterations 173
time step continuity errors : sum local = 5.68453e-13, global = 2.40013e-19, cumulative = 3.31614e-18
Pressure gradient source: uncorrected Ubar = 0.39, pressure gradient = 0.00275226
smoothSolver:  Solving for omega, Initial residual = 4.99155e-05, Final residual = 6.03216e-06, No Iterations 1
smoothSolver:  Solving for k, Initial residual = 0.00339011, Final residual = 2.35527e-06, No Iterations 4
ExecutionTime = 11.45 s  ClockTime = 12 s

Time = 2.15

Courant Number mean: 0.023408 max: 0.0266131
smoothSolver:  Solving for Ux, Initial residual = 0.000295378, Final residual = 6.00168e-06, No Iterations 3
smoothSolver:  Solving for Uy, Initial residual = 0.0157657, Final residual = 5.94653e-06, No Iterations 6
smoothSolver:  Solving for Uz, Initial residual = 0.0138887, Final residual = 9.92276e-06, No Iterations 5
Pressure gradient source: uncorrected Ubar = 0.390001, pressure gradient = 0.00273451
GAMG:  Solving for p, Initial residual = 0.0113329, Final residual = 0.00111292, No Iterations 39
time step continuity errors : sum local = 6.5329e-10, global = 1.58953e-19, cumulative = 3.47509e-18
Pressure gradient source: uncorrected Ubar = 0.39, pressure gradient = 0.00274912
GAMG:  Solving for p, Initial residual = 0.00289408, Final residual = 9.49905e-07, No Iterations 175
time step continuity errors : sum local = 5.52442e-13, global = 5.41103e-20, cumulative = 3.5292e-18
Pressure gradient source: uncorrected Ubar = 0.39, pressure gradient = 0.00275329
smoothSolver:  Solving for omega, Initial residual = 4.85918e-05, Final residual = 5.89211e-06, No Iterations 1
smoothSolver:  Solving for k, Initial residual = 0.00333052, Final residual = 2.28344e-06, No Iterations 4
ExecutionTime = 11.72 s  ClockTime = 12 s

Time = 2.2

Courant Number mean: 0.0234078 max: 0.0266155
smoothSolver:  Solving for Ux, Initial residual = 0.000291119, Final residual = 5.94056e-06, No Iterations 3
smoothSolver:  Solving for Uy, Initial residual = 0.0158709, Final residual = 6.07534e-06, No Iterations 6
smoothSolver:  Solving for Uz, Initial residual = 0.0138503, Final residual = 9.85509e-06, No Iterations 5
Pressure gradient source: uncorrected Ubar = 0.390001, pressure gradient = 0.00273566
GAMG:  Solving for p, Initial residual = 0.0106929, Final residual = 0.00104168, No Iterations 39
time step continuity errors : sum local = 5.9623e-10, global = 1.22365e-19, cumulative = 3.65156e-18
Pressure gradient source: uncorrected Ubar = 0.39, pressure gradient = 0.00275015
GAMG:  Solving for p, Initial residual = 0.00285746, Final residual = 9.84776e-07, No Iterations 172
time step continuity errors : sum local = 5.58387e-13, global = 2.13267e-19, cumulative = 3.86483e-18
Pressure gradient source: uncorrected Ubar = 0.39, pressure gradient = 0.00275428
smoothSolver:  Solving for omega, Initial residual = 4.73839e-05, Final residual = 5.7539e-06, No Iterations 1
smoothSolver:  Solving for k, Initial residual = 0.00327221, Final residual = 9.73448e-06, No Iterations 3
ExecutionTime = 11.99 s  ClockTime = 12 s

Time = 2.25

Courant Number mean: 0.0234076 max: 0.0266179
smoothSolver:  Solving for Ux, Initial residual = 0.000286961, Final residual = 5.88123e-06, No Iterations 3
smoothSolver:  Solving for Uy, Initial residual = 0.0159027, Final residual = 6.18628e-06, No Iterations 6
smoothSolver:  Solving for Uz, Initial residual = 0.0136324, Final residual = 9.76506e-06, No Iterations 5
Pressure gradient source: uncorrected Ubar = 0.390001, pressure gradient = 0.00273677
GAMG:  Solving for p, Initial residual = 0.0134712, Final residual = 0.00127638, No Iterations 31
time step continuity errors : sum local = 7.16912e-10, global = 1.73699e-19, cumulative = 4.03853e-18
Pressure gradient source: uncorrected Ubar = 0.39, pressure gradient = 0.00275114
GAMG:  Solving for p, Initial residual = 0.00333345, Final residual = 9.6572e-07, No Iterations 179
time step continuity errors : sum local = 5.38938e-13, global = 1.29018e-19, cumulative = 4.16755e-18
Pressure gradient source: uncorrected Ubar = 0.39, pressure gradient = 0.00275523
smoothSolver:  Solving for omega, Initial residual = 4.62668e-05, Final residual = 5.61969e-06, No Iterations 1
smoothSolver:  Solving for k, Initial residual = 0.00321434, Final residual = 9.44184e-06, No Iterations 3
ExecutionTime = 12.25 s  ClockTime = 12 s

Time = 2.3

Courant Number mean: 0.0234074 max: 0.0266203
smoothSolver:  Solving for Ux, Initial residual = 0.000282915, Final residual = 5.82447e-06, No Iterations 3
smoothSolver:  Solving for Uy, Initial residual = 0.0159642, Final residual = 6.28495e-06, No Iterations 6
smoothSolver:  Solving for Uz, Initial residual = 0.0143831, Final residual = 9.56561e-06, No Iterations 5
Pressure gradient source: uncorrected Ubar = 0.390001, pressure gradient = 0.00273784
GAMG:  Solving for p, Initial residual = 0.0123534, Final residual = 0.00118498, No Iterations 31
time step continuity errors : sum local = 6.5157e-10, global = 2.14513e-19, cumulative = 4.38206e-18
Pressure gradient source: uncorrected Ubar = 0.39, pressure gradient = 0.00275209
GAMG:  Solving for p, Initial residual = 0.00326656, Final residual = 9.46327e-07, No Iterations 177
time step continuity errors : sum local = 5.15855e-13, global = 1.27029e-19, cumulative = 4.50909e-18
Pressure gradient source: uncorrected Ubar = 0.39, pressure gradient = 0.00275615
smoothSolver:  Solving for omega, Initial residual = 4.5226e-05, Final residual = 5.4929e-06, No Iterations 1
smoothSolver:  Solving for k, Initial residual = 0.0031569, Final residual = 9.15983e-06, No Iterations 3
ExecutionTime = 12.53 s  ClockTime = 13 s

Time = 2.35

Courant Number mean: 0.0234072 max: 0.0266228
smoothSolver:  Solving for Ux, Initial residual = 0.000278972, Final residual = 5.76766e-06, No Iterations 3
smoothSolver:  Solving for Uy, Initial residual = 0.0160401, Final residual = 6.42401e-06, No Iterations 6
smoothSolver:  Solving for Uz, Initial residual = 0.0149762, Final residual = 9.39515e-06, No Iterations 5
Pressure gradient source: uncorrected Ubar = 0.390001, pressure gradient = 0.00273888
GAMG:  Solving for p, Initial residual = 0.0149549, Final residual = 0.00145261, No Iterations 26
time step continuity errors : sum local = 7.81181e-10, global = 9.11004e-20, cumulative = 4.60019e-18
Pressure gradient source: uncorrected Ubar = 0.39, pressure gradient = 0.00275301
GAMG:  Solving for p, Initial residual = 0.00382765, Final residual = 9.97149e-07, No Iterations 178
time step continuity errors : sum local = 5.33582e-13, global = 1.55437e-19, cumulative = 4.75563e-18
Pressure gradient source: uncorrected Ubar = 0.39, pressure gradient = 0.00275703
smoothSolver:  Solving for omega, Initial residual = 4.42384e-05, Final residual = 5.37426e-06, No Iterations 1
smoothSolver:  Solving for k, Initial residual = 0.00309983, Final residual = 8.89055e-06, No Iterations 3
ExecutionTime = 12.79 s  ClockTime = 13 s

Time = 2.4

Courant Number mean: 0.023407 max: 0.0266252
smoothSolver:  Solving for Ux, Initial residual = 0.00027523, Final residual = 5.71186e-06, No Iterations 3
smoothSolver:  Solving for Uy, Initial residual = 0.0162121, Final residual = 6.60673e-06, No Iterations 6
smoothSolver:  Solving for Uz, Initial residual = 0.0163985, Final residual = 9.52377e-06, No Iterations 5
Pressure gradient source: uncorrected Ubar = 0.390001, pressure gradient = 0.00273988
GAMG:  Solving for p, Initial residual = 0.0127137, Final residual = 0.00120327, No Iterations 29
time step continuity errors : sum local = 6.32637e-10, global = 7.154e-21, cumulative = 4.76278e-18
Pressure gradient source: uncorrected Ubar = 0.39, pressure gradient = 0.00275389
GAMG:  Solving for p, Initial residual = 0.00344017, Final residual = 9.84662e-07, No Iterations 176
time step continuity errors : sum local = 5.14065e-13, global = 1.77678e-19, cumulative = 4.94046e-18
Pressure gradient source: uncorrected Ubar = 0.39, pressure gradient = 0.00275788
smoothSolver:  Solving for omega, Initial residual = 4.32991e-05, Final residual = 5.2584e-06, No Iterations 1
smoothSolver:  Solving for k, Initial residual = 0.00304319, Final residual = 8.63631e-06, No Iterations 3
ExecutionTime = 13.05 s  ClockTime = 13 s

Time = 2.45

Courant Number mean: 0.0234068 max: 0.0266277
smoothSolver:  Solving for Ux, Initial residual = 0.000271737, Final residual = 5.65742e-06, No Iterations 3
smoothSolver:  Solving for Uy, Initial residual = 0.0162512, Final residual = 6.75735e-06, No Iterations 6
smoothSolver:  Solving for Uz, Initial residual = 0.0165691, Final residual = 9.38221e-06, No Iterations 5
Pressure gradient source: uncorrected Ubar = 0.390001, pressure gradient = 0.00274084
GAMG:  Solving for p, Initial residual = 0.0119411, Final residual = 0.00115146, No Iterations 30
time step continuity errors : sum local = 5.92385e-10, global = 1.35828e-19, cumulative = 5.07629e-18
Pressure gradient source: uncorrected Ubar = 0.39, pressure gradient = 0.00275473
GAMG:  Solving for p, Initial residual = 0.00316741, Final residual = 9.65921e-07, No Iterations 172
time step continuity errors : sum local = 4.94337e-13, global = 2.59642e-19, cumulative = 5.33593e-18
Pressure gradient source: uncorrected Ubar = 0.39, pressure gradient = 0.00275868
smoothSolver:  Solving for omega, Initial residual = 4.23975e-05, Final residual = 5.14202e-06, No Iterations 1
smoothSolver:  Solving for k, Initial residual = 0.00298655, Final residual = 8.38539e-06, No Iterations 3
ExecutionTime = 13.31 s  ClockTime = 13 s

Time = 2.5

Courant Number mean: 0.0234066 max: 0.0266302
smoothSolver:  Solving for Ux, Initial residual = 0.000268444, Final residual = 5.60195e-06, No Iterations 3
smoothSolver:  Solving for Uy, Initial residual = 0.016234, Final residual = 6.90267e-06, No Iterations 6
smoothSolver:  Solving for Uz, Initial residual = 0.0165983, Final residual = 9.46674e-06, No Iterations 5
Pressure gradient source: uncorrected Ubar = 0.390001, pressure gradient = 0.00274176
GAMG:  Solving for p, Initial residual = 0.0133947, Final residual = 0.00132479, No Iterations 26
time step continuity errors : sum local = 6.6924e-10, global = 1.47453e-19, cumulative = 5.48338e-18
Pressure gradient source: uncorrected Ubar = 0.39, pressure gradient = 0.00275554
GAMG:  Solving for p, Initial residual = 0.00373101, Final residual = 9.56332e-07, No Iterations 174
time step continuity errors : sum local = 4.80552e-13, global = 2.80611e-19, cumulative = 5.76399e-18
Pressure gradient source: uncorrected Ubar = 0.39, pressure gradient = 0.00275946
smoothSolver:  Solving for omega, Initial residual = 4.15236e-05, Final residual = 5.03654e-06, No Iterations 1
smoothSolver:  Solving for k, Initial residual = 0.00293118, Final residual = 8.14516e-06, No Iterations 3
ExecutionTime = 13.56 s  ClockTime = 14 s

Time = 2.55

Courant Number mean: 0.0234064 max: 0.0266326
smoothSolver:  Solving for Ux, Initial residual = 0.000265329, Final residual = 5.54788e-06, No Iterations 3
smoothSolver:  Solving for Uy, Initial residual = 0.0162991, Final residual = 7.09809e-06, No Iterations 6
smoothSolver:  Solving for Uz, Initial residual = 0.0167138, Final residual = 9.47243e-06, No Iterations 5
Pressure gradient source: uncorrected Ubar = 0.390001, pressure gradient = 0.00274265
GAMG:  Solving for p, Initial residual = 0.0134876, Final residual = 0.00132882, No Iterations 24
time step continuity errors : sum local = 6.58751e-10, global = 2.56224e-19, cumulative = 6.02022e-18
Pressure gradient source: uncorrected Ubar = 0.39, pressure gradient = 0.00275631
GAMG:  Solving for p, Initial residual = 0.00366493, Final residual = 9.67007e-07, No Iterations 174
time step continuity errors : sum local = 4.77298e-13, global = 1.67435e-19, cumulative = 6.18765e-18
Pressure gradient source: uncorrected Ubar = 0.39, pressure gradient = 0.00276019
smoothSolver:  Solving for omega, Initial residual = 4.06718e-05, Final residual = 4.93307e-06, No Iterations 1
smoothSolver:  Solving for k, Initial residual = 0.00287645, Final residual = 7.91221e-06, No Iterations 3
ExecutionTime = 13.81 s  ClockTime = 14 s

Time = 2.6

Courant Number mean: 0.0234063 max: 0.0266351
smoothSolver:  Solving for Ux, Initial residual = 0.00026236, Final residual = 5.49312e-06, No Iterations 3
smoothSolver:  Solving for Uy, Initial residual = 0.0164005, Final residual = 7.33609e-06, No Iterations 6
smoothSolver:  Solving for Uz, Initial residual = 0.016622, Final residual = 9.74602e-06, No Iterations 5
Pressure gradient source: uncorrected Ubar = 0.390001, pressure gradient = 0.0027435
GAMG:  Solving for p, Initial residual = 0.0104754, Final residual = 0.00104568, No Iterations 29
time step continuity errors : sum local = 5.07984e-10, global = 1.73831e-19, cumulative = 6.36148e-18
Pressure gradient source: uncorrected Ubar = 0.39, pressure gradient = 0.00275705
GAMG:  Solving for p, Initial residual = 0.00297939, Final residual = 9.9917e-07, No Iterations 170
time step continuity errors : sum local = 4.82119e-13, global = 6.35767e-20, cumulative = 6.42506e-18
Pressure gradient source: uncorrected Ubar = 0.39, pressure gradient = 0.00276089
smoothSolver:  Solving for omega, Initial residual = 3.98452e-05, Final residual = 4.83064e-06, No Iterations 1
smoothSolver:  Solving for k, Initial residual = 0.00282214, Final residual = 7.68287e-06, No Iterations 3
ExecutionTime = 14.07 s  ClockTime = 14 s

Time = 2.65

Courant Number mean: 0.0234061 max: 0.0266376
smoothSolver:  Solving for Ux, Initial residual = 0.000259584, Final residual = 5.43851e-06, No Iterations 3
smoothSolver:  Solving for Uy, Initial residual = 0.0163656, Final residual = 7.47609e-06, No Iterations 6
smoothSolver:  Solving for Uz, Initial residual = 0.0165349, Final residual = 9.54771e-06, No Iterations 5
Pressure gradient source: uncorrected Ubar = 0.390001, pressure gradient = 0.00274431
GAMG:  Solving for p, Initial residual = 0.0113097, Final residual = 0.00108863, No Iterations 27
time step continuity errors : sum local = 5.20077e-10, global = 3.54565e-20, cumulative = 6.46052e-18
Pressure gradient source: uncorrected Ubar = 0.39, pressure gradient = 0.00275774
GAMG:  Solving for p, Initial residual = 0.00299656, Final residual = 9.8672e-07, No Iterations 171
time step continuity errors : sum local = 4.68589e-13, global = 4.96066e-20, cumulative = 6.51012e-18
Pressure gradient source: uncorrected Ubar = 0.39, pressure gradient = 0.00276155
smoothSolver:  Solving for omega, Initial residual = 3.90418e-05, Final residual = 4.74612e-06, No Iterations 1
smoothSolver:  Solving for k, Initial residual = 0.00276911, Final residual = 7.4759e-06, No Iterations 3
ExecutionTime = 14.32 s  ClockTime = 14 s

Time = 2.7

Courant Number mean: 0.0234059 max: 0.0266401
smoothSolver:  Solving for Ux, Initial residual = 0.000257029, Final residual = 5.38225e-06, No Iterations 3
smoothSolver:  Solving for Uy, Initial residual = 0.0163833, Final residual = 7.60099e-06, No Iterations 6
smoothSolver:  Solving for Uz, Initial residual = 0.0161009, Final residual = 9.57023e-06, No Iterations 5
Pressure gradient source: uncorrected Ubar = 0.390001, pressure gradient = 0.0027451
GAMG:  Solving for p, Initial residual = 0.00983186, Final residual = 0.000938877, No Iterations 29
time step continuity errors : sum local = 4.401e-10, global = 4.63768e-20, cumulative = 6.5565e-18
Pressure gradient source: uncorrected Ubar = 0.39, pressure gradient = 0.0027584
GAMG:  Solving for p, Initial residual = 0.00278938, Final residual = 9.62139e-07, No Iterations 167
time step continuity errors : sum local = 4.48437e-13, global = -1.29582e-20, cumulative = 6.54354e-18
Pressure gradient source: uncorrected Ubar = 0.39, pressure gradient = 0.00276217
smoothSolver:  Solving for omega, Initial residual = 3.82559e-05, Final residual = 4.64491e-06, No Iterations 1
smoothSolver:  Solving for k, Initial residual = 0.00271724, Final residual = 7.26724e-06, No Iterations 3
ExecutionTime = 14.57 s  ClockTime = 15 s

Time = 2.75

Courant Number mean: 0.0234058 max: 0.0266427
smoothSolver:  Solving for Ux, Initial residual = 0.000254604, Final residual = 5.3276e-06, No Iterations 3
smoothSolver:  Solving for Uy, Initial residual = 0.0164089, Final residual = 7.72781e-06, No Iterations 6
smoothSolver:  Solving for Uz, Initial residual = 0.0158548, Final residual = 9.59801e-06, No Iterations 5
Pressure gradient source: uncorrected Ubar = 0.390001, pressure gradient = 0.00274584
GAMG:  Solving for p, Initial residual = 0.00961056, Final residual = 0.000938622, No Iterations 29
time step continuity errors : sum local = 4.33056e-10, global = -1.2638e-19, cumulative = 6.41716e-18
Pressure gradient source: uncorrected Ubar = 0.39, pressure gradient = 0.00275902
GAMG:  Solving for p, Initial residual = 0.00278392, Final residual = 9.51711e-07, No Iterations 167
time step continuity errors : sum local = 4.36118e-13, global = -1.1127e-19, cumulative = 6.30589e-18
Pressure gradient source: uncorrected Ubar = 0.39, pressure gradient = 0.00276276
smoothSolver:  Solving for omega, Initial residual = 3.74888e-05, Final residual = 4.56285e-06, No Iterations 1
smoothSolver:  Solving for k, Initial residual = 0.00266651, Final residual = 7.06742e-06, No Iterations 3
ExecutionTime = 14.82 s  ClockTime = 15 s

Time = 2.8

Courant Number mean: 0.0234056 max: 0.0266452
smoothSolver:  Solving for Ux, Initial residual = 0.000252317, Final residual = 5.27314e-06, No Iterations 3
smoothSolver:  Solving for Uy, Initial residual = 0.0164516, Final residual = 7.81852e-06, No Iterations 6
smoothSolver:  Solving for Uz, Initial residual = 0.0155369, Final residual = 9.45707e-06, No Iterations 5
Pressure gradient source: uncorrected Ubar = 0.390001, pressure gradient = 0.00274654
GAMG:  Solving for p, Initial residual = 0.00972956, Final residual = 0.000947728, No Iterations 27
time step continuity errors : sum local = 4.29705e-10, global = 5.04824e-20, cumulative = 6.35637e-18
Pressure gradient source: uncorrected Ubar = 0.39, pressure gradient = 0.0027596
GAMG:  Solving for p, Initial residual = 0.00289517, Final residual = 9.74521e-07, No Iterations 165
time step continuity errors : sum local = 4.38633e-13, global = 3.36745e-20, cumulative = 6.39005e-18
Pressure gradient source: uncorrected Ubar = 0.39, pressure gradient = 0.00276331
smoothSolver:  Solving for omega, Initial residual = 3.6753e-05, Final residual = 4.4761e-06, No Iterations 1
smoothSolver:  Solving for k, Initial residual = 0.00261656, Final residual = 6.87613e-06, No Iterations 3
ExecutionTime = 15.08 s  ClockTime = 15 s

Time = 2.85

Courant Number mean: 0.0234054 max: 0.0266478
smoothSolver:  Solving for Ux, Initial residual = 0.000250172, Final residual = 5.21781e-06, No Iterations 3
smoothSolver:  Solving for Uy, Initial residual = 0.0165304, Final residual = 7.89395e-06, No Iterations 6
smoothSolver:  Solving for Uz, Initial residual = 0.0149978, Final residual = 9.46381e-06, No Iterations 5
Pressure gradient source: uncorrected Ubar = 0.390001, pressure gradient = 0.0027472
GAMG:  Solving for p, Initial residual = 0.00825139, Final residual = 0.000806276, No Iterations 29
time step continuity errors : sum local = 3.59091e-10, global = -7.7157e-20, cumulative = 6.31289e-18
Pressure gradient source: uncorrected Ubar = 0.39, pressure gradient = 0.00276015
GAMG:  Solving for p, Initial residual = 0.00260158, Final residual = 9.88091e-07, No Iterations 160
time step continuity errors : sum local = 4.36337e-13, global = -6.39132e-20, cumulative = 6.24898e-18
Pressure gradient source: uncorrected Ubar = 0.39, pressure gradient = 0.00276382
smoothSolver:  Solving for omega, Initial residual = 3.60366e-05, Final residual = 4.39376e-06, No Iterations 1
smoothSolver:  Solving for k, Initial residual = 0.00256883, Final residual = 6.69282e-06, No Iterations 3
ExecutionTime = 15.32 s  ClockTime = 15 s

Time = 2.9

Courant Number mean: 0.0234053 max: 0.0266503
smoothSolver:  Solving for Ux, Initial residual = 0.000248178, Final residual = 5.1636e-06, No Iterations 3
smoothSolver:  Solving for Uy, Initial residual = 0.0165924, Final residual = 7.97123e-06, No Iterations 6
smoothSolver:  Solving for Uz, Initial residual = 0.0147856, Final residual = 9.35311e-06, No Iterations 5
Pressure gradient source: uncorrected Ubar = 0.390001, pressure gradient = 0.00274782
GAMG:  Solving for p, Initial residual = 0.00769298, Final residual = 0.00076755, No Iterations 29
time step continuity errors : sum local = 3.36427e-10, global = -5.1634e-20, cumulative = 6.19735e-18
Pressure gradient source: uncorrected Ubar = 0.39, pressure gradient = 0.00276066
GAMG:  Solving for p, Initial residual = 0.00248499, Final residual = 9.91849e-07, No Iterations 158
time step continuity errors : sum local = 4.30716e-13, global = -5.50313e-21, cumulative = 6.19184e-18
Pressure gradient source: uncorrected Ubar = 0.39, pressure gradient = 0.00276429
smoothSolver:  Solving for omega, Initial residual = 3.53354e-05, Final residual = 4.31931e-06, No Iterations 1
smoothSolver:  Solving for k, Initial residual = 0.00252582, Final residual = 6.52236e-06, No Iterations 3
ExecutionTime = 15.56 s  ClockTime = 16 s

Time = 2.95

Courant Number mean: 0.0234052 max: 0.0266529
smoothSolver:  Solving for Ux, Initial residual = 0.000246256, Final residual = 5.10995e-06, No Iterations 3
smoothSolver:  Solving for Uy, Initial residual = 0.0166383, Final residual = 8.02618e-06, No Iterations 6
smoothSolver:  Solving for Uz, Initial residual = 0.0145416, Final residual = 9.38317e-06, No Iterations 5
Pressure gradient source: uncorrected Ubar = 0.390001, pressure gradient = 0.00274841
GAMG:  Solving for p, Initial residual = 0.00831907, Final residual = 0.000826249, No Iterations 26
time step continuity errors : sum local = 3.55159e-10, global = 4.16959e-20, cumulative = 6.23354e-18
Pressure gradient source: uncorrected Ubar = 0.39, pressure gradient = 0.00276113
GAMG:  Solving for p, Initial residual = 0.00267599, Final residual = 9.99056e-07, No Iterations 157
time step continuity errors : sum local = 4.2734e-13, global = -3.84349e-20, cumulative = 6.1951e-18
Pressure gradient source: uncorrected Ubar = 0.39, pressure gradient = 0.00276473
smoothSolver:  Solving for omega, Initial residual = 3.4655e-05, Final residual = 4.24093e-06, No Iterations 1
smoothSolver:  Solving for k, Initial residual = 0.00248317, Final residual = 6.34944e-06, No Iterations 3
ExecutionTime = 15.79 s  ClockTime = 16 s

Time = 3

Courant Number mean: 0.023405 max: 0.0266555
smoothSolver:  Solving for Ux, Initial residual = 0.000244474, Final residual = 5.05678e-06, No Iterations 3
smoothSolver:  Solving for Uy, Initial residual = 0.0166822, Final residual = 8.09462e-06, No Iterations 6
smoothSolver:  Solving for Uz, Initial residual = 0.0142492, Final residual = 9.36342e-06, No Iterations 5
Pressure gradient source: uncorrected Ubar = 0.390001, pressure gradient = 0.00274894
GAMG:  Solving for p, Initial residual = 0.00892919, Final residual = 0.000888636, No Iterations 24
time step continuity errors : sum local = 3.76726e-10, global = -6.13753e-20, cumulative = 6.13373e-18
Pressure gradient source: uncorrected Ubar = 0.39, pressure gradient = 0.00276156
GAMG:  Solving for p, Initial residual = 0.00263524, Final residual = 9.64183e-07, No Iterations 159
time step continuity errors : sum local = 4.06179e-13, global = 1.35785e-19, cumulative = 6.26951e-18
Pressure gradient source: uncorrected Ubar = 0.39, pressure gradient = 0.00276512
smoothSolver:  Solving for omega, Initial residual = 3.39954e-05, Final residual = 4.16944e-06, No Iterations 1
smoothSolver:  Solving for k, Initial residual = 0.00244097, Final residual = 6.17584e-06, No Iterations 3
[...]
time step continuity errors : sum local = 6.24254e-15, global = 1.4748e-19, cumulative = 1.77307e-16
Pressure gradient source: uncorrected Ubar = 0.39, pressure gradient = 0.0026654
smoothSolver:  Solving for omega, Initial residual = 9.28168e-06, Final residual = 9.28168e-06, No Iterations 0
smoothSolver:  Solving for k, Initial residual = 9.81373e-06, Final residual = 9.81373e-06, No Iterations 0
ExecutionTime = 390.16 s  ClockTime = 392 s

Time = 79.3

Courant Number mean: 0.0234001 max: 0.0272312
smoothSolver:  Solving for Ux, Initial residual = 1.13012e-06, Final residual = 1.13012e-06, No Iterations 0
smoothSolver:  Solving for Uy, Initial residual = 0.000430012, Final residual = 7.06378e-06, No Iterations 3
smoothSolver:  Solving for Uz, Initial residual = 4.34486e-05, Final residual = 3.79792e-06, No Iterations 2
Pressure gradient source: uncorrected Ubar = 0.39, pressure gradient = 0.0026654
GAMG:  Solving for p, Initial residual = 0.00288637, Final residual = 0.000275196, No Iterations 24
time step continuity errors : sum local = 1.71857e-12, global = 1.78508e-19, cumulative = 1.77485e-16
Pressure gradient source: uncorrected Ubar = 0.39, pressure gradient = 0.00266535
GAMG:  Solving for p, Initial residual = 0.00305035, Final residual = 9.80042e-07, No Iterations 144
time step continuity errors : sum local = 6.22679e-15, global = 1.50635e-19, cumulative = 1.77636e-16
Pressure gradient source: uncorrected Ubar = 0.39, pressure gradient = 0.0026654
smoothSolver:  Solving for omega, Initial residual = 9.27871e-06, Final residual = 9.27871e-06, No Iterations 0
smoothSolver:  Solving for k, Initial residual = 9.85766e-06, Final residual = 9.85766e-06, No Iterations 0
ExecutionTime = 390.37 s  ClockTime = 392 s

Time = 79.35

Courant Number mean: 0.0234001 max: 0.0272312
smoothSolver:  Solving for Ux, Initial residual = 1.12875e-06, Final residual = 1.12875e-06, No Iterations 0
smoothSolver:  Solving for Uy, Initial residual = 0.00043232, Final residual = 7.0952e-06, No Iterations 3
smoothSolver:  Solving for Uz, Initial residual = 4.29362e-05, Final residual = 3.75363e-06, No Iterations 2
Pressure gradient source: uncorrected Ubar = 0.39, pressure gradient = 0.0026654
GAMG:  Solving for p, Initial residual = 0.00288061, Final residual = 0.000275226, No Iterations 24
time step continuity errors : sum local = 1.71869e-12, global = 2.15329e-20, cumulative = 1.77658e-16
Pressure gradient source: uncorrected Ubar = 0.39, pressure gradient = 0.00266535
GAMG:  Solving for p, Initial residual = 0.00304489, Final residual = 9.78045e-07, No Iterations 144
time step continuity errors : sum local = 6.21394e-15, global = 5.53314e-20, cumulative = 1.77713e-16
Pressure gradient source: uncorrected Ubar = 0.39, pressure gradient = 0.0026654
smoothSolver:  Solving for omega, Initial residual = 9.27815e-06, Final residual = 9.27815e-06, No Iterations 0
smoothSolver:  Solving for k, Initial residual = 9.9067e-06, Final residual = 9.9067e-06, No Iterations 0
ExecutionTime = 390.58 s  ClockTime = 393 s

Time = 79.4

Courant Number mean: 0.0234001 max: 0.0272312
smoothSolver:  Solving for Ux, Initial residual = 1.1275e-06, Final residual = 1.1275e-06, No Iterations 0
smoothSolver:  Solving for Uy, Initial residual = 0.000434508, Final residual = 7.12527e-06, No Iterations 3
smoothSolver:  Solving for Uz, Initial residual = 4.24608e-05, Final residual = 3.71326e-06, No Iterations 2
Pressure gradient source: uncorrected Ubar = 0.39, pressure gradient = 0.0026654
GAMG:  Solving for p, Initial residual = 0.00287545, Final residual = 0.00027522, No Iterations 24
time step continuity errors : sum local = 1.71859e-12, global = 1.10512e-19, cumulative = 1.77823e-16
Pressure gradient source: uncorrected Ubar = 0.39, pressure gradient = 0.00266535
GAMG:  Solving for p, Initial residual = 0.00304004, Final residual = 9.76339e-07, No Iterations 144
time step continuity errors : sum local = 6.2029e-15, global = 1.31836e-19, cumulative = 1.77955e-16
Pressure gradient source: uncorrected Ubar = 0.39, pressure gradient = 0.0026654
smoothSolver:  Solving for omega, Initial residual = 9.2793e-06, Final residual = 9.2793e-06, No Iterations 0
smoothSolver:  Solving for k, Initial residual = 9.96397e-06, Final residual = 9.96397e-06, No Iterations 0
ExecutionTime = 390.8 s  ClockTime = 393 s

Time = 79.45

Courant Number mean: 0.0234001 max: 0.0272313
smoothSolver:  Solving for Ux, Initial residual = 1.12633e-06, Final residual = 1.12633e-06, No Iterations 0
smoothSolver:  Solving for Uy, Initial residual = 0.000436546, Final residual = 7.15332e-06, No Iterations 3
smoothSolver:  Solving for Uz, Initial residual = 4.20239e-05, Final residual = 3.67703e-06, No Iterations 2
Pressure gradient source: uncorrected Ubar = 0.39, pressure gradient = 0.0026654
GAMG:  Solving for p, Initial residual = 0.00287076, Final residual = 0.000276011, No Iterations 24
time step continuity errors : sum local = 1.72357e-12, global = 5.54087e-20, cumulative = 1.78011e-16
Pressure gradient source: uncorrected Ubar = 0.39, pressure gradient = 0.00266535
GAMG:  Solving for p, Initial residual = 0.00303644, Final residual = 9.70775e-07, No Iterations 144
time step continuity errors : sum local = 6.16717e-15, global = 1.07847e-19, cumulative = 1.78118e-16
Pressure gradient source: uncorrected Ubar = 0.39, pressure gradient = 0.0026654
smoothSolver:  Solving for omega, Initial residual = 9.28167e-06, Final residual = 9.28167e-06, No Iterations 0
smoothSolver:  Solving for k, Initial residual = 1.0027e-05, Final residual = 1.31699e-06, No Iterations 1
ExecutionTime = 391.01 s  ClockTime = 393 s

Time = 79.5

Courant Number mean: 0.0234001 max: 0.0272313
smoothSolver:  Solving for Ux, Initial residual = 1.12575e-06, Final residual = 1.12575e-06, No Iterations 0
smoothSolver:  Solving for Uy, Initial residual = 0.00043986, Final residual = 7.1737e-06, No Iterations 3
smoothSolver:  Solving for Uz, Initial residual = 4.35022e-05, Final residual = 3.51945e-06, No Iterations 2
Pressure gradient source: uncorrected Ubar = 0.39, pressure gradient = 0.0026654
GAMG:  Solving for p, Initial residual = 0.003039, Final residual = 0.000292777, No Iterations 23
time step continuity errors : sum local = 1.82747e-12, global = -3.48263e-20, cumulative = 1.78084e-16
Pressure gradient source: uncorrected Ubar = 0.39, pressure gradient = 0.00266535
GAMG:  Solving for p, Initial residual = 0.0030339, Final residual = 9.61203e-07, No Iterations 145
time step continuity errors : sum local = 6.11233e-15, global = -3.96077e-21, cumulative = 1.7808e-16
Pressure gradient source: uncorrected Ubar = 0.39, pressure gradient = 0.00266539
smoothSolver:  Solving for omega, Initial residual = 9.30187e-06, Final residual = 9.30187e-06, No Iterations 0
smoothSolver:  Solving for k, Initial residual = 9.93407e-06, Final residual = 9.93407e-06, No Iterations 0
ExecutionTime = 391.23 s  ClockTime = 393 s

Time = 79.55

Courant Number mean: 0.0234001 max: 0.0272313
smoothSolver:  Solving for Ux, Initial residual = 1.1223e-06, Final residual = 1.1223e-06, No Iterations 0
smoothSolver:  Solving for Uy, Initial residual = 0.000428644, Final residual = 7.0711e-06, No Iterations 3
smoothSolver:  Solving for Uz, Initial residual = 4.55838e-05, Final residual = 4.1336e-06, No Iterations 2
Pressure gradient source: uncorrected Ubar = 0.39, pressure gradient = 0.00266539
GAMG:  Solving for p, Initial residual = 0.00292799, Final residual = 0.000291173, No Iterations 23
time step continuity errors : sum local = 1.81747e-12, global = -3.40094e-20, cumulative = 1.78046e-16
Pressure gradient source: uncorrected Ubar = 0.39, pressure gradient = 0.00266535
GAMG:  Solving for p, Initial residual = 0.00308861, Final residual = 9.84374e-07, No Iterations 144
time step continuity errors : sum local = 6.25337e-15, global = 4.24556e-21, cumulative = 1.7805e-16
Pressure gradient source: uncorrected Ubar = 0.39, pressure gradient = 0.00266539
smoothSolver:  Solving for omega, Initial residual = 9.27709e-06, Final residual = 9.27709e-06, No Iterations 0
smoothSolver:  Solving for k, Initial residual = 9.94981e-06, Final residual = 9.94981e-06, No Iterations 0
ExecutionTime = 391.44 s  ClockTime = 393 s

Time = 79.6

Courant Number mean: 0.0234001 max: 0.0272313
smoothSolver:  Solving for Ux, Initial residual = 1.11968e-06, Final residual = 1.11968e-06, No Iterations 0
smoothSolver:  Solving for Uy, Initial residual = 0.000432548, Final residual = 7.11834e-06, No Iterations 3
smoothSolver:  Solving for Uz, Initial residual = 4.46384e-05, Final residual = 4.02745e-06, No Iterations 2
Pressure gradient source: uncorrected Ubar = 0.39, pressure gradient = 0.00266539
GAMG:  Solving for p, Initial residual = 0.00290635, Final residual = 0.000274222, No Iterations 24
time step continuity errors : sum local = 1.71213e-12, global = 1.79058e-20, cumulative = 1.78068e-16
Pressure gradient source: uncorrected Ubar = 0.39, pressure gradient = 0.00266535
GAMG:  Solving for p, Initial residual = 0.00305958, Final residual = 9.88655e-07, No Iterations 144
time step continuity errors : sum local = 6.28063e-15, global = 5.7767e-20, cumulative = 1.78126e-16
Pressure gradient source: uncorrected Ubar = 0.39, pressure gradient = 0.00266539
smoothSolver:  Solving for omega, Initial residual = 9.26134e-06, Final residual = 9.26134e-06, No Iterations 0
smoothSolver:  Solving for k, Initial residual = 9.97943e-06, Final residual = 9.97943e-06, No Iterations 0
ExecutionTime = 391.66 s  ClockTime = 394 s

Time = 79.65

Courant Number mean: 0.0234001 max: 0.0272313
smoothSolver:  Solving for Ux, Initial residual = 1.11758e-06, Final residual = 1.11758e-06, No Iterations 0
smoothSolver:  Solving for Uy, Initial residual = 0.000436699, Final residual = 7.16921e-06, No Iterations 3
smoothSolver:  Solving for Uz, Initial residual = 4.32209e-05, Final residual = 3.86255e-06, No Iterations 2
Pressure gradient source: uncorrected Ubar = 0.39, pressure gradient = 0.00266539
GAMG:  Solving for p, Initial residual = 0.00288131, Final residual = 0.000274626, No Iterations 24
time step continuity errors : sum local = 1.71471e-12, global = 5.96701e-20, cumulative = 1.78185e-16
Pressure gradient source: uncorrected Ubar = 0.39, pressure gradient = 0.00266535
GAMG:  Solving for p, Initial residual = 0.00304449, Final residual = 9.88171e-07, No Iterations 144
time step continuity errors : sum local = 6.27706e-15, global = 2.23526e-19, cumulative = 1.78409e-16
Pressure gradient source: uncorrected Ubar = 0.39, pressure gradient = 0.00266539
smoothSolver:  Solving for omega, Initial residual = 9.25164e-06, Final residual = 9.25164e-06, No Iterations 0
smoothSolver:  Solving for k, Initial residual = 1.00195e-05, Final residual = 1.2999e-06, No Iterations 1
ExecutionTime = 391.87 s  ClockTime = 394 s

Time = 79.7

Courant Number mean: 0.0234001 max: 0.0272314
smoothSolver:  Solving for Ux, Initial residual = 1.11617e-06, Final residual = 1.11617e-06, No Iterations 0
smoothSolver:  Solving for Uy, Initial residual = 0.000440897, Final residual = 7.20737e-06, No Iterations 3
smoothSolver:  Solving for Uz, Initial residual = 4.37388e-05, Final residual = 3.6336e-06, No Iterations 2
Pressure gradient source: uncorrected Ubar = 0.39, pressure gradient = 0.00266539
GAMG:  Solving for p, Initial residual = 0.00293218, Final residual = 0.000292101, No Iterations 23
time step continuity errors : sum local = 1.82293e-12, global = 2.66667e-19, cumulative = 1.78675e-16
Pressure gradient source: uncorrected Ubar = 0.39, pressure gradient = 0.00266535
GAMG:  Solving for p, Initial residual = 0.00301349, Final residual = 9.6769e-07, No Iterations 145
time step continuity errors : sum local = 6.15185e-15, global = 8.51691e-20, cumulative = 1.78761e-16
Pressure gradient source: uncorrected Ubar = 0.39, pressure gradient = 0.00266539
smoothSolver:  Solving for omega, Initial residual = 9.26327e-06, Final residual = 9.26327e-06, No Iterations 0
smoothSolver:  Solving for k, Initial residual = 9.91709e-06, Final residual = 9.91709e-06, No Iterations 0
ExecutionTime = 392.09 s  ClockTime = 394 s

Time = 79.75

Courant Number mean: 0.0234001 max: 0.0272314
smoothSolver:  Solving for Ux, Initial residual = 1.11248e-06, Final residual = 1.11248e-06, No Iterations 0
smoothSolver:  Solving for Uy, Initial residual = 0.000433587, Final residual = 7.16312e-06, No Iterations 3
smoothSolver:  Solving for Uz, Initial residual = 4.59622e-05, Final residual = 4.20802e-06, No Iterations 2
Pressure gradient source: uncorrected Ubar = 0.39, pressure gradient = 0.00266539
GAMG:  Solving for p, Initial residual = 0.00292602, Final residual = 0.00029098, No Iterations 23
time step continuity errors : sum local = 1.81589e-12, global = 1.79095e-19, cumulative = 1.7894e-16
Pressure gradient source: uncorrected Ubar = 0.39, pressure gradient = 0.00266535
GAMG:  Solving for p, Initial residual = 0.00308842, Final residual = 9.88531e-07, No Iterations 144
time step continuity errors : sum local = 6.27824e-15, global = 1.05294e-19, cumulative = 1.79045e-16
Pressure gradient source: uncorrected Ubar = 0.39, pressure gradient = 0.00266539
smoothSolver:  Solving for omega, Initial residual = 9.2382e-06, Final residual = 9.2382e-06, No Iterations 0
smoothSolver:  Solving for k, Initial residual = 9.93101e-06, Final residual = 9.93101e-06, No Iterations 0
ExecutionTime = 392.3 s  ClockTime = 394 s

Time = 79.8

Courant Number mean: 0.0234001 max: 0.0272314
smoothSolver:  Solving for Ux, Initial residual = 1.10967e-06, Final residual = 1.10967e-06, No Iterations 0
smoothSolver:  Solving for Uy, Initial residual = 0.000438386, Final residual = 7.22427e-06, No Iterations 3
smoothSolver:  Solving for Uz, Initial residual = 4.50751e-05, Final residual = 4.09698e-06, No Iterations 2
Pressure gradient source: uncorrected Ubar = 0.39, pressure gradient = 0.00266539
GAMG:  Solving for p, Initial residual = 0.00290584, Final residual = 0.000273898, No Iterations 24
time step continuity errors : sum local = 1.70972e-12, global = 9.31399e-20, cumulative = 1.79138e-16
Pressure gradient source: uncorrected Ubar = 0.39, pressure gradient = 0.00266535
GAMG:  Solving for p, Initial residual = 0.00305863, Final residual = 9.92651e-07, No Iterations 144
time step continuity errors : sum local = 6.30445e-15, global = 8.10293e-20, cumulative = 1.79219e-16
Pressure gradient source: uncorrected Ubar = 0.39, pressure gradient = 0.00266539
smoothSolver:  Solving for omega, Initial residual = 9.22195e-06, Final residual = 9.22195e-06, No Iterations 0
smoothSolver:  Solving for k, Initial residual = 9.96095e-06, Final residual = 9.96095e-06, No Iterations 0
ExecutionTime = 392.52 s  ClockTime = 395 s

Time = 79.85

Courant Number mean: 0.0234001 max: 0.0272314
smoothSolver:  Solving for Ux, Initial residual = 1.10743e-06, Final residual = 1.10743e-06, No Iterations 0
smoothSolver:  Solving for Uy, Initial residual = 0.000443479, Final residual = 7.28309e-06, No Iterations 3
smoothSolver:  Solving for Uz, Initial residual = 4.36427e-05, Final residual = 3.92615e-06, No Iterations 2
Pressure gradient source: uncorrected Ubar = 0.39, pressure gradient = 0.00266539
GAMG:  Solving for p, Initial residual = 0.00287983, Final residual = 0.000274266, No Iterations 24
time step continuity errors : sum local = 1.71206e-12, global = 6.95255e-20, cumulative = 1.79289e-16
Pressure gradient source: uncorrected Ubar = 0.39, pressure gradient = 0.00266535
GAMG:  Solving for p, Initial residual = 0.00304224, Final residual = 9.91764e-07, No Iterations 144
time step continuity errors : sum local = 6.29821e-15, global = -3.60004e-20, cumulative = 1.79253e-16
Pressure gradient source: uncorrected Ubar = 0.39, pressure gradient = 0.00266539
smoothSolver:  Solving for omega, Initial residual = 9.21157e-06, Final residual = 9.21157e-06, No Iterations 0
smoothSolver:  Solving for k, Initial residual = 1.00021e-05, Final residual = 1.27679e-06, No Iterations 1
ExecutionTime = 392.73 s  ClockTime = 395 s

Time = 79.9

Courant Number mean: 0.0234001 max: 0.0272315
smoothSolver:  Solving for Ux, Initial residual = 1.10574e-06, Final residual = 1.10574e-06, No Iterations 0
smoothSolver:  Solving for Uy, Initial residual = 0.000448178, Final residual = 7.33291e-06, No Iterations 3
smoothSolver:  Solving for Uz, Initial residual = 4.37079e-05, Final residual = 3.69776e-06, No Iterations 2
Pressure gradient source: uncorrected Ubar = 0.39, pressure gradient = 0.00266539
GAMG:  Solving for p, Initial residual = 0.00287, Final residual = 0.00027351, No Iterations 24
time step continuity errors : sum local = 1.7069e-12, global = 1.56311e-19, cumulative = 1.79409e-16
Pressure gradient source: uncorrected Ubar = 0.39, pressure gradient = 0.00266535
GAMG:  Solving for p, Initial residual = 0.00299395, Final residual = 9.74227e-07, No Iterations 145
time step continuity errors : sum local = 6.19214e-15, global = 1.76579e-19, cumulative = 1.79586e-16
Pressure gradient source: uncorrected Ubar = 0.39, pressure gradient = 0.00266539
smoothSolver:  Solving for omega, Initial residual = 9.22171e-06, Final residual = 9.22171e-06, No Iterations 0
smoothSolver:  Solving for k, Initial residual = 9.91301e-06, Final residual = 9.91301e-06, No Iterations 0
ExecutionTime = 392.95 s  ClockTime = 395 s

Time = 79.95

Courant Number mean: 0.0234001 max: 0.0272315
smoothSolver:  Solving for Ux, Initial residual = 1.10218e-06, Final residual = 1.10218e-06, No Iterations 0
smoothSolver:  Solving for Uy, Initial residual = 0.000445047, Final residual = 7.33394e-06, No Iterations 3
smoothSolver:  Solving for Uz, Initial residual = 4.50832e-05, Final residual = 4.08042e-06, No Iterations 2
Pressure gradient source: uncorrected Ubar = 0.39, pressure gradient = 0.00266539
GAMG:  Solving for p, Initial residual = 0.00289274, Final residual = 0.000273751, No Iterations 24
time step continuity errors : sum local = 1.70861e-12, global = 1.0677e-19, cumulative = 1.79692e-16
Pressure gradient source: uncorrected Ubar = 0.39, pressure gradient = 0.00266535
GAMG:  Solving for p, Initial residual = 0.00305199, Final residual = 9.98107e-07, No Iterations 144
time step continuity errors : sum local = 6.33758e-15, global = 1.46933e-19, cumulative = 1.79839e-16
Pressure gradient source: uncorrected Ubar = 0.39, pressure gradient = 0.00266539
smoothSolver:  Solving for omega, Initial residual = 9.20182e-06, Final residual = 9.20182e-06, No Iterations 0
smoothSolver:  Solving for k, Initial residual = 9.93339e-06, Final residual = 9.93339e-06, No Iterations 0
ExecutionTime = 393.16 s  ClockTime = 395 s

Time = 80

Courant Number mean: 0.0234001 max: 0.0272315
smoothSolver:  Solving for Ux, Initial residual = 1.09945e-06, Final residual = 1.09945e-06, No Iterations 0
smoothSolver:  Solving for Uy, Initial residual = 0.000449791, Final residual = 7.39259e-06, No Iterations 3
smoothSolver:  Solving for Uz, Initial residual = 4.43589e-05, Final residual = 3.99455e-06, No Iterations 2
Pressure gradient source: uncorrected Ubar = 0.39, pressure gradient = 0.00266539
GAMG:  Solving for p, Initial residual = 0.00287826, Final residual = 0.000273765, No Iterations 24
time step continuity errors : sum local = 1.70851e-12, global = 2.47376e-21, cumulative = 1.79842e-16
Pressure gradient source: uncorrected Ubar = 0.39, pressure gradient = 0.00266535
GAMG:  Solving for p, Initial residual = 0.00304054, Final residual = 9.93436e-07, No Iterations 144
time step continuity errors : sum local = 6.30722e-15, global = 2.5132e-19, cumulative = 1.80093e-16
Pressure gradient source: uncorrected Ubar = 0.39, pressure gradient = 0.00266539
smoothSolver:  Solving for omega, Initial residual = 9.18839e-06, Final residual = 9.18839e-06, No Iterations 0
smoothSolver:  Solving for k, Initial residual = 9.96664e-06, Final residual = 9.96664e-06, No Iterations 0
ExecutionTime = 393.43 s  ClockTime = 396 s

End

Finalising parallel run
