--------------------------------------------------------------------------
[[53757,1],0]: A high-performance Open MPI point-to-point messaging module
was unable to find any relevant network interfaces:

Module: OpenFabrics (openib)
  Host: hyd37

Another transport will be used instead, although this may result in
lower performance.
--------------------------------------------------------------------------
/*---------------------------------------------------------------------------*\
  =========                 |
  \\      /  F ield         | OpenFOAM: The Open Source CFD Toolbox
   \\    /   O peration     | Website:  https://openfoam.org
    \\  /    A nd           | Version:  6
     \\/     M anipulation  |
\*---------------------------------------------------------------------------*/
Build  : 6-eb0ce5d792a1
Exec   : pisoFoam -parallel
Date   : Jul 06 2022
Time   : 15:34:45
Host   : "hyd37"
PID    : 83956
I/O    : uncollated
Case   : /students/rtanuharja/turbCoMe/case_cylinder_kOmega
nProcs : 6
Slaves : 
5
(
"hyd37.83957"
"hyd37.83958"
"hyd37.83959"
"hyd37.83960"
"hyd37.83961"
)

Pstream initialized with:
    floatTransfer      : 0
    nProcsSimpleSum    : 0
    commsType          : nonBlocking
    polling iterations : 0
fileModificationChecking : Monitoring run-time modified files using timeStampMaster (fileModificationSkew 10)
allowSystemOperations : Allowing user-supplied system call operations

// * * * * * * * * * * * * * * * * * * * * * * * * * * * * * * * * * * * * * //
Create time

Create mesh for time = 0

Reading field p

Reading field U

Reading/calculating face flux field phi

Selecting incompressible transport model Newtonian
Selecting turbulence model type RAS
Selecting RAS turbulence model kOmega
RAS
{
    RASModel        kOmega;
    turbulence      on;
    printCoeffs     on;
    betaStar        0.09;
    beta            0.072;
    gamma           0.52;
    alphaK          0.5;
    alphaOmega      0.5;
}

No MRF models present

No finite volume options present

Starting time loop

Time = 0.01

Courant Number mean: 0.254768 max: 2.42397
smoothSolver:  Solving for Ux, Initial residual = 0.00153001, Final residual = 8.91846e-06, No Iterations 2
smoothSolver:  Solving for Uy, Initial residual = 0.996046, Final residual = 0.00493251, No Iterations 2
smoothSolver:  Solving for Uz, Initial residual = 0.9405, Final residual = 0.00868568, No Iterations 2
[hyd37:83949] 5 more processes have sent help message help-mpi-btl-base.txt / btl:no-nics
[hyd37:83949] Set MCA parameter "orte_base_help_aggregate" to 0 to see all help / error messages
DICPCG:  Solving for p, Initial residual = 0.999998, Final residual = 4.7787e-05, No Iterations 290
DICPCG:  Solving for p, Initial residual = 0.116391, Final residual = 4.77066e-05, No Iterations 213
DICPCG:  Solving for p, Initial residual = 0.0126708, Final residual = 4.72661e-05, No Iterations 212
time step continuity errors : sum local = 9.83357e-08, global = 1.6112e-09, cumulative = 1.6112e-09
DICPCG:  Solving for p, Initial residual = 0.11101, Final residual = 4.93715e-05, No Iterations 248
DICPCG:  Solving for p, Initial residual = 0.0730629, Final residual = 4.87551e-05, No Iterations 209
DICPCG:  Solving for p, Initial residual = 0.00997024, Final residual = 9.09716e-07, No Iterations 273
time step continuity errors : sum local = 1.0318e-09, global = 1.54852e-12, cumulative = 1.61275e-09
smoothSolver:  Solving for omega, Initial residual = 0.00140687, Final residual = 8.11639e-06, No Iterations 1
smoothSolver:  Solving for k, Initial residual = 0.00635512, Final residual = 4.82061e-05, No Iterations 2
ExecutionTime = 14.51 s  ClockTime = 15 s

Time = 0.02

Courant Number mean: 0.255204 max: 3.89819
smoothSolver:  Solving for Ux, Initial residual = 0.0428915, Final residual = 0.000149933, No Iterations 2
smoothSolver:  Solving for Uy, Initial residual = 0.330949, Final residual = 0.0015401, No Iterations 2
smoothSolver:  Solving for Uz, Initial residual = 0.290559, Final residual = 0.00241158, No Iterations 2
DICPCG:  Solving for p, Initial residual = 0.437979, Final residual = 4.70045e-05, No Iterations 281
DICPCG:  Solving for p, Initial residual = 0.154527, Final residual = 4.78077e-05, No Iterations 224
DICPCG:  Solving for p, Initial residual = 0.0193895, Final residual = 4.38743e-05, No Iterations 217
time step continuity errors : sum local = 6.03853e-08, global = -1.08466e-09, cumulative = 5.28095e-10
DICPCG:  Solving for p, Initial residual = 0.18362, Final residual = 4.99159e-05, No Iterations 255
DICPCG:  Solving for p, Initial residual = 0.240453, Final residual = 4.73974e-05, No Iterations 227
DICPCG:  Solving for p, Initial residual = 0.0384506, Final residual = 9.58774e-07, No Iterations 284
time step continuity errors : sum local = 2.84107e-10, global = -1.86761e-12, cumulative = 5.26227e-10
smoothSolver:  Solving for omega, Initial residual = 0.00102897, Final residual = 6.1977e-06, No Iterations 1
smoothSolver:  Solving for k, Initial residual = 0.00609231, Final residual = 5.15038e-05, No Iterations 2
ExecutionTime = 26.8 s  ClockTime = 27 s

Time = 0.03

Courant Number mean: 0.255387 max: 3.98714
smoothSolver:  Solving for Ux, Initial residual = 0.00141273, Final residual = 3.05909e-06, No Iterations 2
smoothSolver:  Solving for Uy, Initial residual = 0.0125427, Final residual = 4.58114e-05, No Iterations 2
smoothSolver:  Solving for Uz, Initial residual = 0.0118734, Final residual = 6.08758e-05, No Iterations 2
DICPCG:  Solving for p, Initial residual = 0.184639, Final residual = 4.81305e-05, No Iterations 231
DICPCG:  Solving for p, Initial residual = 0.0202991, Final residual = 4.94911e-05, No Iterations 200
DICPCG:  Solving for p, Initial residual = 0.00304189, Final residual = 4.99811e-05, No Iterations 130
time step continuity errors : sum local = 1.01969e-08, global = -1.46098e-09, cumulative = -9.34755e-10
DICPCG:  Solving for p, Initial residual = 0.0590492, Final residual = 4.7249e-05, No Iterations 225
DICPCG:  Solving for p, Initial residual = 0.00943951, Final residual = 4.76207e-05, No Iterations 77
DICPCG:  Solving for p, Initial residual = 0.00137056, Final residual = 9.65138e-07, No Iterations 225
time step continuity errors : sum local = 1.58488e-10, global = 6.22517e-13, cumulative = -9.34132e-10
smoothSolver:  Solving for omega, Initial residual = 0.000763719, Final residual = 5.31751e-06, No Iterations 1
smoothSolver:  Solving for k, Initial residual = 0.00588701, Final residual = 4.87903e-05, No Iterations 2
ExecutionTime = 36.4 s  ClockTime = 36 s

Time = 0.04

Courant Number mean: 0.255378 max: 3.98377
smoothSolver:  Solving for Ux, Initial residual = 0.000712116, Final residual = 1.00744e-06, No Iterations 2
smoothSolver:  Solving for Uy, Initial residual = 0.00400597, Final residual = 1.29681e-05, No Iterations 2
smoothSolver:  Solving for Uz, Initial residual = 0.00707744, Final residual = 3.81247e-05, No Iterations 2
DICPCG:  Solving for p, Initial residual = 0.173572, Final residual = 4.7659e-05, No Iterations 202
DICPCG:  Solving for p, Initial residual = 0.00311783, Final residual = 4.92882e-05, No Iterations 98
DICPCG:  Solving for p, Initial residual = 0.000442685, Final residual = 4.86098e-05, No Iterations 18
time step continuity errors : sum local = 6.31382e-09, global = -8.73138e-10, cumulative = -1.80727e-09
DICPCG:  Solving for p, Initial residual = 0.0299201, Final residual = 4.52271e-05, No Iterations 194
DICPCG:  Solving for p, Initial residual = 0.000683956, Final residual = 4.87576e-05, No Iterations 35
DICPCG:  Solving for p, Initial residual = 0.0001217, Final residual = 9.89249e-07, No Iterations 200
time step continuity errors : sum local = 1.30699e-10, global = -6.61398e-13, cumulative = -1.80793e-09
smoothSolver:  Solving for omega, Initial residual = 0.000582819, Final residual = 4.75053e-06, No Iterations 1
smoothSolver:  Solving for k, Initial residual = 0.00582735, Final residual = 4.8103e-05, No Iterations 2
ExecutionTime = 43.78 s  ClockTime = 44 s

Time = 0.05

Courant Number mean: 0.255374 max: 3.97372
smoothSolver:  Solving for Ux, Initial residual = 0.000636031, Final residual = 9.98802e-07, No Iterations 2
smoothSolver:  Solving for Uy, Initial residual = 0.00353706, Final residual = 1.29073e-05, No Iterations 2
smoothSolver:  Solving for Uz, Initial residual = 0.00656868, Final residual = 3.84599e-05, No Iterations 2
DICPCG:  Solving for p, Initial residual = 0.128539, Final residual = 4.8516e-05, No Iterations 123
DICPCG:  Solving for p, Initial residual = 0.0020993, Final residual = 4.8829e-05, No Iterations 76
DICPCG:  Solving for p, Initial residual = 0.000256285, Final residual = 4.9404e-05, No Iterations 15
time step continuity errors : sum local = 5.72043e-09, global = -5.94568e-10, cumulative = -2.4025e-09
DICPCG:  Solving for p, Initial residual = 0.0163106, Final residual = 4.91889e-05, No Iterations 101
DICPCG:  Solving for p, Initial residual = 0.000421237, Final residual = 4.79124e-05, No Iterations 15
DICPCG:  Solving for p, Initial residual = 7.04529e-05, Final residual = 9.57067e-07, No Iterations 177
time step continuity errors : sum local = 1.11245e-10, global = -1.15561e-12, cumulative = -2.40366e-09
smoothSolver:  Solving for omega, Initial residual = 0.000451488, Final residual = 4.40794e-06, No Iterations 1
smoothSolver:  Solving for k, Initial residual = 0.00574286, Final residual = 4.73958e-05, No Iterations 2
ExecutionTime = 49.61 s  ClockTime = 50 s

Time = 0.06

Courant Number mean: 0.25537 max: 3.96096
smoothSolver:  Solving for Ux, Initial residual = 0.000585529, Final residual = 1.01822e-06, No Iterations 2
smoothSolver:  Solving for Uy, Initial residual = 0.00336695, Final residual = 1.29685e-05, No Iterations 2
smoothSolver:  Solving for Uz, Initial residual = 0.00621592, Final residual = 3.80462e-05, No Iterations 2
DICPCG:  Solving for p, Initial residual = 0.0973288, Final residual = 4.94522e-05, No Iterations 116
DICPCG:  Solving for p, Initial residual = 0.00156501, Final residual = 4.72017e-05, No Iterations 36
DICPCG:  Solving for p, Initial residual = 0.000176707, Final residual = 4.94567e-05, No Iterations 7
time step continuity errors : sum local = 5.29244e-09, global = -2.65268e-10, cumulative = -2.66892e-09
DICPCG:  Solving for p, Initial residual = 0.0108641, Final residual = 4.94627e-05, No Iterations 73
DICPCG:  Solving for p, Initial residual = 0.000330018, Final residual = 4.8231e-05, No Iterations 13
DICPCG:  Solving for p, Initial residual = 6.31903e-05, Final residual = 9.60776e-07, No Iterations 200
time step continuity errors : sum local = 1.03073e-10, global = 3.30488e-12, cumulative = -2.66562e-09
smoothSolver:  Solving for omega, Initial residual = 0.000353778, Final residual = 4.1777e-07, No Iterations 2
smoothSolver:  Solving for k, Initial residual = 0.0056222, Final residual = 4.6668e-05, No Iterations 2
ExecutionTime = 55.01 s  ClockTime = 55 s

Time = 0.07

Courant Number mean: 0.255365 max: 3.9456
smoothSolver:  Solving for Ux, Initial residual = 0.000546175, Final residual = 1.04796e-06, No Iterations 2
smoothSolver:  Solving for Uy, Initial residual = 0.00324717, Final residual = 1.3038e-05, No Iterations 2
smoothSolver:  Solving for Uz, Initial residual = 0.0058953, Final residual = 3.73138e-05, No Iterations 2
DICPCG:  Solving for p, Initial residual = 0.0751485, Final residual = 4.83679e-05, No Iterations 115
DICPCG:  Solving for p, Initial residual = 0.00124568, Final residual = 4.97983e-05, No Iterations 24
DICPCG:  Solving for p, Initial residual = 0.000137094, Final residual = 4.94728e-05, No Iterations 4
time step continuity errors : sum local = 5.04664e-09, global = -4.12936e-10, cumulative = -3.07855e-09
DICPCG:  Solving for p, Initial residual = 0.00825629, Final residual = 4.64803e-05, No Iterations 83
DICPCG:  Solving for p, Initial residual = 0.000295313, Final residual = 4.82632e-05, No Iterations 12
DICPCG:  Solving for p, Initial residual = 5.95753e-05, Final residual = 9.46191e-07, No Iterations 178
time step continuity errors : sum local = 9.67611e-11, global = 9.73766e-13, cumulative = -3.07758e-09
smoothSolver:  Solving for omega, Initial residual = 0.000279829, Final residual = 4.14306e-07, No Iterations 2
smoothSolver:  Solving for k, Initial residual = 0.00547877, Final residual = 4.5133e-05, No Iterations 2
ExecutionTime = 60.17 s  ClockTime = 60 s

Time = 0.08

Courant Number mean: 0.25536 max: 3.92748
smoothSolver:  Solving for Ux, Initial residual = 0.000514253, Final residual = 1.0818e-06, No Iterations 2
smoothSolver:  Solving for Uy, Initial residual = 0.0031548, Final residual = 1.30925e-05, No Iterations 2
smoothSolver:  Solving for Uz, Initial residual = 0.005605, Final residual = 3.65064e-05, No Iterations 2
DICPCG:  Solving for p, Initial residual = 0.0591819, Final residual = 4.73142e-05, No Iterations 114
DICPCG:  Solving for p, Initial residual = 0.00102865, Final residual = 4.54646e-05, No Iterations 24
DICPCG:  Solving for p, Initial residual = 0.000109712, Final residual = 4.78277e-05, No Iterations 3
time step continuity errors : sum local = 4.71939e-09, global = -3.05e-10, cumulative = -3.38258e-09
DICPCG:  Solving for p, Initial residual = 0.00684048, Final residual = 4.90378e-05, No Iterations 73
DICPCG:  Solving for p, Initial residual = 0.000272325, Final residual = 4.63905e-05, No Iterations 13
DICPCG:  Solving for p, Initial residual = 5.72613e-05, Final residual = 9.85665e-07, No Iterations 191
time step continuity errors : sum local = 9.75149e-11, global = 1.53702e-12, cumulative = -3.38104e-09
smoothSolver:  Solving for omega, Initial residual = 0.000224023, Final residual = 4.13901e-07, No Iterations 2
smoothSolver:  Solving for k, Initial residual = 0.00534387, Final residual = 4.36069e-05, No Iterations 2
ExecutionTime = 65.34 s  ClockTime = 65 s

Time = 0.09

Courant Number mean: 0.255355 max: 3.90859
smoothSolver:  Solving for Ux, Initial residual = 0.000488142, Final residual = 1.1216e-06, No Iterations 2
smoothSolver:  Solving for Uy, Initial residual = 0.00308416, Final residual = 1.31745e-05, No Iterations 2
smoothSolver:  Solving for Uz, Initial residual = 0.00534282, Final residual = 3.57043e-05, No Iterations 2
DICPCG:  Solving for p, Initial residual = 0.04785, Final residual = 4.69963e-05, No Iterations 113
DICPCG:  Solving for p, Initial residual = 0.000879417, Final residual = 4.61692e-05, No Iterations 24
DICPCG:  Solving for p, Initial residual = 9.53783e-05, Final residual = 4.49589e-05, No Iterations 3
time step continuity errors : sum local = 4.32021e-09, global = -1.82613e-10, cumulative = -3.56366e-09
DICPCG:  Solving for p, Initial residual = 0.00597051, Final residual = 4.73579e-05, No Iterations 72
DICPCG:  Solving for p, Initial residual = 0.00025626, Final residual = 4.90614e-05, No Iterations 12
DICPCG:  Solving for p, Initial residual = 5.82492e-05, Final residual = 9.95363e-07, No Iterations 191
time step continuity errors : sum local = 9.58776e-11, global = -1.10188e-12, cumulative = -3.56476e-09
smoothSolver:  Solving for omega, Initial residual = 0.000181664, Final residual = 4.14107e-07, No Iterations 2
smoothSolver:  Solving for k, Initial residual = 0.00519865, Final residual = 4.20579e-05, No Iterations 2
ExecutionTime = 70.52 s  ClockTime = 71 s

Time = 0.1

Courant Number mean: 0.255349 max: 3.88987
smoothSolver:  Solving for Ux, Initial residual = 0.000466952, Final residual = 1.16494e-06, No Iterations 2
smoothSolver:  Solving for Uy, Initial residual = 0.00302765, Final residual = 1.3294e-05, No Iterations 2
smoothSolver:  Solving for Uz, Initial residual = 0.00511438, Final residual = 3.49863e-05, No Iterations 2
DICPCG:  Solving for p, Initial residual = 0.0399635, Final residual = 4.88928e-05, No Iterations 112
DICPCG:  Solving for p, Initial residual = 0.000780128, Final residual = 4.61683e-05, No Iterations 24
DICPCG:  Solving for p, Initial residual = 8.7e-05, Final residual = 4.95392e-05, No Iterations 2
time step continuity errors : sum local = 4.65656e-09, global = -1.34862e-10, cumulative = -3.69962e-09
DICPCG:  Solving for p, Initial residual = 0.00542973, Final residual = 4.95115e-05, No Iterations 71
DICPCG:  Solving for p, Initial residual = 0.000250358, Final residual = 4.92742e-05, No Iterations 12
DICPCG:  Solving for p, Initial residual = 5.83729e-05, Final residual = 9.88371e-07, No Iterations 192
time step continuity errors : sum local = 9.31174e-11, global = -2.36811e-12, cumulative = -3.70199e-09
smoothSolver:  Solving for omega, Initial residual = 0.000150313, Final residual = 4.14654e-07, No Iterations 2
smoothSolver:  Solving for k, Initial residual = 0.00504081, Final residual = 4.06351e-05, No Iterations 2
ExecutionTime = 75.68 s  ClockTime = 76 s

Time = 0.11

Courant Number mean: 0.255344 max: 3.86971
smoothSolver:  Solving for Ux, Initial residual = 0.000449774, Final residual = 1.20929e-06, No Iterations 2
smoothSolver:  Solving for Uy, Initial residual = 0.0029823, Final residual = 1.34191e-05, No Iterations 2
smoothSolver:  Solving for Uz, Initial residual = 0.00491032, Final residual = 3.43509e-05, No Iterations 2
DICPCG:  Solving for p, Initial residual = 0.0349123, Final residual = 4.77541e-05, No Iterations 112
DICPCG:  Solving for p, Initial residual = 0.00070777, Final residual = 4.78779e-05, No Iterations 24
DICPCG:  Solving for p, Initial residual = 8.34548e-05, Final residual = 4.38052e-05, No Iterations 3
time step continuity errors : sum local = 4.03864e-09, global = -8.07136e-11, cumulative = -3.7827e-09
DICPCG:  Solving for p, Initial residual = 0.00513666, Final residual = 4.81998e-05, No Iterations 71
DICPCG:  Solving for p, Initial residual = 0.0002449, Final residual = 4.90965e-05, No Iterations 12
DICPCG:  Solving for p, Initial residual = 5.81735e-05, Final residual = 9.75629e-07, No Iterations 193
time step continuity errors : sum local = 9.01326e-11, global = -1.35838e-12, cumulative = -3.78406e-09
smoothSolver:  Solving for omega, Initial residual = 0.000128184, Final residual = 4.21265e-07, No Iterations 2
smoothSolver:  Solving for k, Initial residual = 0.00485223, Final residual = 3.90394e-05, No Iterations 2
ExecutionTime = 80.91 s  ClockTime = 81 s

Time = 0.12

Courant Number mean: 0.255339 max: 3.84837
smoothSolver:  Solving for Ux, Initial residual = 0.000435229, Final residual = 1.2532e-06, No Iterations 2
smoothSolver:  Solving for Uy, Initial residual = 0.00294574, Final residual = 1.35335e-05, No Iterations 2
smoothSolver:  Solving for Uz, Initial residual = 0.00473002, Final residual = 3.38143e-05, No Iterations 2
DICPCG:  Solving for p, Initial residual = 0.0315226, Final residual = 4.5773e-05, No Iterations 112
DICPCG:  Solving for p, Initial residual = 0.000655058, Final residual = 4.80782e-05, No Iterations 24
DICPCG:  Solving for p, Initial residual = 8.06258e-05, Final residual = 4.29155e-05, No Iterations 3
time step continuity errors : sum local = 3.88508e-09, global = -1.06209e-11, cumulative = -3.79468e-09
DICPCG:  Solving for p, Initial residual = 0.00493745, Final residual = 4.68356e-05, No Iterations 71
DICPCG:  Solving for p, Initial residual = 0.000241421, Final residual = 4.9338e-05, No Iterations 12
DICPCG:  Solving for p, Initial residual = 5.84284e-05, Final residual = 9.89486e-07, No Iterations 196
time step continuity errors : sum local = 8.97731e-11, global = 5.38079e-13, cumulative = -3.79414e-09
smoothSolver:  Solving for omega, Initial residual = 0.000123495, Final residual = 4.21067e-07, No Iterations 2
smoothSolver:  Solving for k, Initial residual = 0.00467384, Final residual = 3.76446e-05, No Iterations 2
ExecutionTime = 86.15 s  ClockTime = 86 s

Time = 0.13

Courant Number mean: 0.255333 max: 3.8285
smoothSolver:  Solving for Ux, Initial residual = 0.000422554, Final residual = 1.2957e-06, No Iterations 2
smoothSolver:  Solving for Uy, Initial residual = 0.00291547, Final residual = 1.363e-05, No Iterations 2
smoothSolver:  Solving for Uz, Initial residual = 0.00457212, Final residual = 3.33899e-05, No Iterations 2
DICPCG:  Solving for p, Initial residual = 0.0289543, Final residual = 4.70209e-05, No Iterations 112
DICPCG:  Solving for p, Initial residual = 0.00062046, Final residual = 4.89949e-05, No Iterations 24
DICPCG:  Solving for p, Initial residual = 8.01758e-05, Final residual = 4.37739e-05, No Iterations 3
time step continuity errors : sum local = 3.89402e-09, global = -1.44151e-12, cumulative = -3.79558e-09
DICPCG:  Solving for p, Initial residual = 0.00475978, Final residual = 4.69453e-05, No Iterations 71
DICPCG:  Solving for p, Initial residual = 0.000240721, Final residual = 4.97933e-05, No Iterations 12
DICPCG:  Solving for p, Initial residual = 5.90878e-05, Final residual = 9.9209e-07, No Iterations 203
time step continuity errors : sum local = 8.84533e-11, global = 2.40304e-12, cumulative = -3.79318e-09
smoothSolver:  Solving for omega, Initial residual = 0.000124649, Final residual = 4.23499e-07, No Iterations 2
smoothSolver:  Solving for k, Initial residual = 0.00449897, Final residual = 3.62274e-05, No Iterations 2
ExecutionTime = 91.42 s  ClockTime = 92 s

Time = 0.14

Courant Number mean: 0.255328 max: 3.80808
smoothSolver:  Solving for Ux, Initial residual = 0.000411318, Final residual = 1.33652e-06, No Iterations 2
smoothSolver:  Solving for Uy, Initial residual = 0.00288871, Final residual = 1.37119e-05, No Iterations 2
smoothSolver:  Solving for Uz, Initial residual = 0.00443374, Final residual = 3.30251e-05, No Iterations 2
DICPCG:  Solving for p, Initial residual = 0.0275217, Final residual = 4.62706e-05, No Iterations 112
DICPCG:  Solving for p, Initial residual = 0.00060138, Final residual = 4.94773e-05, No Iterations 24
DICPCG:  Solving for p, Initial residual = 8.02563e-05, Final residual = 4.43664e-05, No Iterations 3
time step continuity errors : sum local = 3.88101e-09, global = -1.29859e-12, cumulative = -3.79448e-09
DICPCG:  Solving for p, Initial residual = 0.00471566, Final residual = 4.76288e-05, No Iterations 71
DICPCG:  Solving for p, Initial residual = 0.000242755, Final residual = 4.78673e-05, No Iterations 13
DICPCG:  Solving for p, Initial residual = 5.81405e-05, Final residual = 9.35778e-07, No Iterations 203
time step continuity errors : sum local = 8.20472e-11, global = 2.11935e-12, cumulative = -3.79236e-09
smoothSolver:  Solving for omega, Initial residual = 0.000124879, Final residual = 4.26396e-07, No Iterations 2
smoothSolver:  Solving for k, Initial residual = 0.00432006, Final residual = 3.4783e-05, No Iterations 2
ExecutionTime = 96.66 s  ClockTime = 97 s

Time = 0.15

Courant Number mean: 0.255324 max: 3.78679
smoothSolver:  Solving for Ux, Initial residual = 0.000401132, Final residual = 1.37564e-06, No Iterations 2
smoothSolver:  Solving for Uy, Initial residual = 0.00286445, Final residual = 1.37674e-05, No Iterations 2
smoothSolver:  Solving for Uz, Initial residual = 0.00431018, Final residual = 3.27147e-05, No Iterations 2
DICPCG:  Solving for p, Initial residual = 0.0263692, Final residual = 4.69333e-05, No Iterations 112
DICPCG:  Solving for p, Initial residual = 0.000587024, Final residual = 4.79074e-05, No Iterations 25
DICPCG:  Solving for p, Initial residual = 7.9155e-05, Final residual = 4.47601e-05, No Iterations 3
time step continuity errors : sum local = 3.84857e-09, global = 5.81384e-11, cumulative = -3.73422e-09
DICPCG:  Solving for p, Initial residual = 0.00465884, Final residual = 4.72375e-05, No Iterations 71
DICPCG:  Solving for p, Initial residual = 0.000243154, Final residual = 4.84596e-05, No Iterations 13
DICPCG:  Solving for p, Initial residual = 5.89109e-05, Final residual = 9.8376e-07, No Iterations 203
time step continuity errors : sum local = 8.47834e-11, global = 1.36646e-12, cumulative = -3.73286e-09
smoothSolver:  Solving for omega, Initial residual = 0.000123037, Final residual = 4.27026e-07, No Iterations 2
smoothSolver:  Solving for k, Initial residual = 0.00414468, Final residual = 3.33905e-05, No Iterations 2
ExecutionTime = 101.87 s  ClockTime = 102 s

Time = 0.16

Courant Number mean: 0.25532 max: 3.76472
smoothSolver:  Solving for Ux, Initial residual = 0.000391966, Final residual = 1.41295e-06, No Iterations 2
smoothSolver:  Solving for Uy, Initial residual = 0.00284162, Final residual = 1.37951e-05, No Iterations 2
smoothSolver:  Solving for Uz, Initial residual = 0.0041987, Final residual = 3.24803e-05, No Iterations 2
DICPCG:  Solving for p, Initial residual = 0.0252041, Final residual = 4.78249e-05, No Iterations 112
DICPCG:  Solving for p, Initial residual = 0.000581056, Final residual = 4.90237e-05, No Iterations 25
DICPCG:  Solving for p, Initial residual = 8.06808e-05, Final residual = 4.50341e-05, No Iterations 3
time step continuity errors : sum local = 3.80893e-09, global = 4.26836e-11, cumulative = -3.69017e-09
DICPCG:  Solving for p, Initial residual = 0.00456863, Final residual = 4.81022e-05, No Iterations 71
DICPCG:  Solving for p, Initial residual = 0.00024578, Final residual = 4.9203e-05, No Iterations 13
DICPCG:  Solving for p, Initial residual = 6.00651e-05, Final residual = 9.84306e-07, No Iterations 203
time step continuity errors : sum local = 8.34495e-11, global = 1.03032e-12, cumulative = -3.68914e-09
smoothSolver:  Solving for omega, Initial residual = 0.000120611, Final residual = 4.27752e-07, No Iterations 2
smoothSolver:  Solving for k, Initial residual = 0.00398736, Final residual = 3.2048e-05, No Iterations 2
ExecutionTime = 107.1 s  ClockTime = 107 s

Time = 0.17

Courant Number mean: 0.255318 max: 3.7463
smoothSolver:  Solving for Ux, Initial residual = 0.000383733, Final residual = 1.44823e-06, No Iterations 2
smoothSolver:  Solving for Uy, Initial residual = 0.00281957, Final residual = 1.37947e-05, No Iterations 2
smoothSolver:  Solving for Uz, Initial residual = 0.00410134, Final residual = 3.2289e-05, No Iterations 2
DICPCG:  Solving for p, Initial residual = 0.0248775, Final residual = 4.99892e-05, No Iterations 111
DICPCG:  Solving for p, Initial residual = 0.000575514, Final residual = 4.57983e-05, No Iterations 26
DICPCG:  Solving for p, Initial residual = 7.93028e-05, Final residual = 4.53453e-05, No Iterations 3
time step continuity errors : sum local = 3.77267e-09, global = 7.86663e-11, cumulative = -3.61048e-09
DICPCG:  Solving for p, Initial residual = 0.00460417, Final residual = 4.85779e-05, No Iterations 71
DICPCG:  Solving for p, Initial residual = 0.000247689, Final residual = 4.97233e-05, No Iterations 13
DICPCG:  Solving for p, Initial residual = 6.0832e-05, Final residual = 9.89618e-07, No Iterations 203
time step continuity errors : sum local = 8.25224e-11, global = 6.43411e-13, cumulative = -3.60983e-09
smoothSolver:  Solving for omega, Initial residual = 0.000116967, Final residual = 4.2917e-07, No Iterations 2
smoothSolver:  Solving for k, Initial residual = 0.00381899, Final residual = 3.07173e-05, No Iterations 2
bounding k, min: -4.98535e-05 max: 0.0196506 average: 0.00119439
ExecutionTime = 112.37 s  ClockTime = 113 s

Time = 0.18

Courant Number mean: 0.255315 max: 3.72966
smoothSolver:  Solving for Ux, Initial residual = 0.000376225, Final residual = 1.48115e-06, No Iterations 2
smoothSolver:  Solving for Uy, Initial residual = 0.0027984, Final residual = 1.3768e-05, No Iterations 2
smoothSolver:  Solving for Uz, Initial residual = 0.00401006, Final residual = 3.21112e-05, No Iterations 2
DICPCG:  Solving for p, Initial residual = 0.0239787, Final residual = 4.74134e-05, No Iterations 112
DICPCG:  Solving for p, Initial residual = 0.000570583, Final residual = 4.8479e-05, No Iterations 26
DICPCG:  Solving for p, Initial residual = 8.1694e-05, Final residual = 4.83875e-05, No Iterations 3
time step continuity errors : sum local = 3.96032e-09, global = 8.88426e-11, cumulative = -3.52099e-09
DICPCG:  Solving for p, Initial residual = 0.00455498, Final residual = 4.96713e-05, No Iterations 71
DICPCG:  Solving for p, Initial residual = 0.000250316, Final residual = 4.9152e-05, No Iterations 14
DICPCG:  Solving for p, Initial residual = 6.10178e-05, Final residual = 9.45348e-07, No Iterations 202
time step continuity errors : sum local = 7.75623e-11, global = 4.7095e-13, cumulative = -3.52052e-09
smoothSolver:  Solving for omega, Initial residual = 0.000113026, Final residual = 4.28327e-07, No Iterations 2
smoothSolver:  Solving for k, Initial residual = 0.00367875, Final residual = 2.9486e-05, No Iterations 2
ExecutionTime = 117.59 s  ClockTime = 118 s

Time = 0.19

Courant Number mean: 0.255314 max: 3.73241
smoothSolver:  Solving for Ux, Initial residual = 0.000369469, Final residual = 1.51195e-06, No Iterations 2
smoothSolver:  Solving for Uy, Initial residual = 0.00277897, Final residual = 1.37224e-05, No Iterations 2
smoothSolver:  Solving for Uz, Initial residual = 0.00392944, Final residual = 3.19431e-05, No Iterations 2
DICPCG:  Solving for p, Initial residual = 0.0237222, Final residual = 4.76493e-05, No Iterations 112
DICPCG:  Solving for p, Initial residual = 0.000571952, Final residual = 4.97711e-05, No Iterations 26
DICPCG:  Solving for p, Initial residual = 8.3597e-05, Final residual = 4.87938e-05, No Iterations 3
time step continuity errors : sum local = 3.93451e-09, global = 6.23326e-11, cumulative = -3.45819e-09
DICPCG:  Solving for p, Initial residual = 0.00457753, Final residual = 4.66713e-05, No Iterations 72
DICPCG:  Solving for p, Initial residual = 0.000250548, Final residual = 4.84402e-05, No Iterations 14
DICPCG:  Solving for p, Initial residual = 6.04981e-05, Final residual = 9.99414e-07, No Iterations 200
time step continuity errors : sum local = 8.07828e-11, global = 6.11134e-13, cumulative = -3.45757e-09
smoothSolver:  Solving for omega, Initial residual = 0.000109208, Final residual = 4.30238e-07, No Iterations 2
smoothSolver:  Solving for k, Initial residual = 0.00353225, Final residual = 2.81861e-05, No Iterations 2
bounding k, min: -0.000265669 max: 0.0213743 average: 0.00123114
ExecutionTime = 122.84 s  ClockTime = 123 s

Time = 0.2

Courant Number mean: 0.255312 max: 3.74434
smoothSolver:  Solving for Ux, Initial residual = 0.000363302, Final residual = 1.54027e-06, No Iterations 2
smoothSolver:  Solving for Uy, Initial residual = 0.00276169, Final residual = 1.36652e-05, No Iterations 2
smoothSolver:  Solving for Uz, Initial residual = 0.00385106, Final residual = 3.17647e-05, No Iterations 2
DICPCG:  Solving for p, Initial residual = 0.0233724, Final residual = 4.83218e-05, No Iterations 112
DICPCG:  Solving for p, Initial residual = 0.000571732, Final residual = 4.54111e-05, No Iterations 27
DICPCG:  Solving for p, Initial residual = 8.03603e-05, Final residual = 4.81521e-05, No Iterations 3
time step continuity errors : sum local = 3.82689e-09, global = 9.53737e-11, cumulative = -3.3622e-09
DICPCG:  Solving for p, Initial residual = 0.00458609, Final residual = 4.74981e-05, No Iterations 72
DICPCG:  Solving for p, Initial residual = 0.000252905, Final residual = 4.87397e-05, No Iterations 14
DICPCG:  Solving for p, Initial residual = 6.10498e-05, Final residual = 9.04096e-07, No Iterations 201
time step continuity errors : sum local = 7.20211e-11, global = 5.34678e-13, cumulative = -3.36167e-09
smoothSolver:  Solving for omega, Initial residual = 0.000105045, Final residual = 4.28777e-07, No Iterations 2
smoothSolver:  Solving for k, Initial residual = 0.00339391, Final residual = 2.70004e-05, No Iterations 2
bounding k, min: -7.03695e-06 max: 0.0221943 average: 0.00124887
ExecutionTime = 128.64 s  ClockTime = 130 s

Time = 0.21

Courant Number mean: 0.255311 max: 3.75073
smoothSolver:  Solving for Ux, Initial residual = 0.000357668, Final residual = 1.5669e-06, No Iterations 2
smoothSolver:  Solving for Uy, Initial residual = 0.00274571, Final residual = 1.36023e-05, No Iterations 2
smoothSolver:  Solving for Uz, Initial residual = 0.00377822, Final residual = 3.16168e-05, No Iterations 2
DICPCG:  Solving for p, Initial residual = 0.0226021, Final residual = 4.87352e-05, No Iterations 112
DICPCG:  Solving for p, Initial residual = 0.000571362, Final residual = 4.77253e-05, No Iterations 27
DICPCG:  Solving for p, Initial residual = 8.26167e-05, Final residual = 4.93591e-05, No Iterations 3
time step continuity errors : sum local = 3.86837e-09, global = 9.85694e-11, cumulative = -3.2631e-09
DICPCG:  Solving for p, Initial residual = 0.00451647, Final residual = 4.8621e-05, No Iterations 72
DICPCG:  Solving for p, Initial residual = 0.000255527, Final residual = 4.9548e-05, No Iterations 14
DICPCG:  Solving for p, Initial residual = 6.2066e-05, Final residual = 9.89324e-07, No Iterations 200
time step continuity errors : sum local = 7.77129e-11, global = 5.59566e-13, cumulative = -3.26254e-09
smoothSolver:  Solving for omega, Initial residual = 0.000101187, Final residual = 4.27392e-07, No Iterations 2
smoothSolver:  Solving for k, Initial residual = 0.0032704, Final residual = 2.58891e-05, No Iterations 2
bounding k, min: -1.75009e-05 max: 0.0229891 average: 0.00126692
ExecutionTime = 133.92 s  ClockTime = 135 s

Time = 0.22

Courant Number mean: 0.25531 max: 3.75374
smoothSolver:  Solving for Ux, Initial residual = 0.000352621, Final residual = 1.59159e-06, No Iterations 2
smoothSolver:  Solving for Uy, Initial residual = 0.00273086, Final residual = 1.35419e-05, No Iterations 2
smoothSolver:  Solving for Uz, Initial residual = 0.00371552, Final residual = 3.14757e-05, No Iterations 2
DICPCG:  Solving for p, Initial residual = 0.0225565, Final residual = 4.816e-05, No Iterations 113
DICPCG:  Solving for p, Initial residual = 0.000575611, Final residual = 4.74805e-05, No Iterations 27
DICPCG:  Solving for p, Initial residual = 8.28267e-05, Final residual = 4.8661e-05, No Iterations 3
time step continuity errors : sum local = 3.76583e-09, global = 7.085e-11, cumulative = -3.19169e-09
DICPCG:  Solving for p, Initial residual = 0.00455251, Final residual = 4.96479e-05, No Iterations 72
DICPCG:  Solving for p, Initial residual = 0.00025864, Final residual = 4.94797e-05, No Iterations 14
DICPCG:  Solving for p, Initial residual = 6.23171e-05, Final residual = 9.0286e-07, No Iterations 201
time step continuity errors : sum local = 7.00195e-11, global = 4.22219e-13, cumulative = -3.19127e-09
smoothSolver:  Solving for omega, Initial residual = 9.74893e-05, Final residual = 4.27295e-07, No Iterations 2
smoothSolver:  Solving for k, Initial residual = 0.00314555, Final residual = 2.47972e-05, No Iterations 2
ExecutionTime = 139.18 s  ClockTime = 140 s

Time = 0.23

Courant Number mean: 0.255309 max: 3.75171
smoothSolver:  Solving for Ux, Initial residual = 0.000348074, Final residual = 1.61462e-06, No Iterations 2
smoothSolver:  Solving for Uy, Initial residual = 0.0027177, Final residual = 1.34905e-05, No Iterations 2
smoothSolver:  Solving for Uz, Initial residual = 0.00365395, Final residual = 3.13171e-05, No Iterations 2
DICPCG:  Solving for p, Initial residual = 0.0220545, Final residual = 4.83609e-05, No Iterations 113
DICPCG:  Solving for p, Initial residual = 0.000578439, Final residual = 4.97228e-05, No Iterations 27
DICPCG:  Solving for p, Initial residual = 8.50926e-05, Final residual = 4.96901e-05, No Iterations 3
time step continuity errors : sum local = 3.80198e-09, global = 8.59203e-11, cumulative = -3.10534e-09
DICPCG:  Solving for p, Initial residual = 0.00452795, Final residual = 4.84331e-05, No Iterations 73
DICPCG:  Solving for p, Initial residual = 0.000260219, Final residual = 4.95108e-05, No Iterations 14
DICPCG:  Solving for p, Initial residual = 6.25796e-05, Final residual = 9.51984e-07, No Iterations 200
time step continuity errors : sum local = 7.29846e-11, global = 4.26295e-13, cumulative = -3.10492e-09
smoothSolver:  Solving for omega, Initial residual = 9.44715e-05, Final residual = 4.25164e-07, No Iterations 2
smoothSolver:  Solving for k, Initial residual = 0.00303052, Final residual = 2.37274e-05, No Iterations 2
bounding k, min: -0.000241128 max: 0.0245073 average: 0.00130187
ExecutionTime = 144.56 s  ClockTime = 146 s

Time = 0.24

Courant Number mean: 0.255308 max: 3.74568
smoothSolver:  Solving for Ux, Initial residual = 0.000343871, Final residual = 1.63562e-06, No Iterations 2
smoothSolver:  Solving for Uy, Initial residual = 0.00270576, Final residual = 1.34492e-05, No Iterations 2
smoothSolver:  Solving for Uz, Initial residual = 0.00359792, Final residual = 3.11727e-05, No Iterations 2
DICPCG:  Solving for p, Initial residual = 0.0220976, Final residual = 4.87187e-05, No Iterations 113
DICPCG:  Solving for p, Initial residual = 0.000582992, Final residual = 4.94265e-05, No Iterations 28
DICPCG:  Solving for p, Initial residual = 8.49479e-05, Final residual = 4.86337e-05, No Iterations 3
time step continuity errors : sum local = 3.68244e-09, global = 1.06165e-10, cumulative = -2.99875e-09
DICPCG:  Solving for p, Initial residual = 0.00452403, Final residual = 4.90495e-05, No Iterations 73
DICPCG:  Solving for p, Initial residual = 0.000262619, Final residual = 4.96004e-05, No Iterations 14
DICPCG:  Solving for p, Initial residual = 6.28422e-05, Final residual = 8.97949e-07, No Iterations 201
time step continuity errors : sum local = 6.81199e-11, global = 3.10511e-13, cumulative = -2.99844e-09
smoothSolver:  Solving for omega, Initial residual = 9.21223e-05, Final residual = 4.21452e-07, No Iterations 2
smoothSolver:  Solving for k, Initial residual = 0.0029269, Final residual = 2.27868e-05, No Iterations 2
bounding k, min: -7.89269e-05 max: 0.0252298 average: 0.00131957
ExecutionTime = 149.87 s  ClockTime = 151 s

Time = 0.25

Courant Number mean: 0.255308 max: 3.74302
smoothSolver:  Solving for Ux, Initial residual = 0.000339989, Final residual = 1.65496e-06, No Iterations 2
smoothSolver:  Solving for Uy, Initial residual = 0.00269484, Final residual = 1.34191e-05, No Iterations 2
smoothSolver:  Solving for Uz, Initial residual = 0.0035488, Final residual = 3.10288e-05, No Iterations 2
DICPCG:  Solving for p, Initial residual = 0.0224803, Final residual = 4.99976e-05, No Iterations 113
DICPCG:  Solving for p, Initial residual = 0.000593298, Final residual = 4.87635e-05, No Iterations 30
DICPCG:  Solving for p, Initial residual = 8.58667e-05, Final residual = 4.66247e-05, No Iterations 3
time step continuity errors : sum local = 3.49713e-09, global = 8.69669e-11, cumulative = -2.91148e-09
DICPCG:  Solving for p, Initial residual = 0.00458689, Final residual = 4.91982e-05, No Iterations 74
DICPCG:  Solving for p, Initial residual = 0.000265117, Final residual = 4.92706e-05, No Iterations 14
DICPCG:  Solving for p, Initial residual = 6.27228e-05, Final residual = 9.02116e-07, No Iterations 201
time step continuity errors : sum local = 6.7778e-11, global = -7.30118e-15, cumulative = -2.91148e-09
smoothSolver:  Solving for omega, Initial residual = 8.9858e-05, Final residual = 4.21375e-07, No Iterations 2
smoothSolver:  Solving for k, Initial residual = 0.00282239, Final residual = 2.18254e-05, No Iterations 2
bounding k, min: -9.16044e-05 max: 0.0259289 average: 0.00133675
ExecutionTime = 155.2 s  ClockTime = 156 s

Time = 0.26

Courant Number mean: 0.255307 max: 3.74311
smoothSolver:  Solving for Ux, Initial residual = 0.000336418, Final residual = 1.67241e-06, No Iterations 2
smoothSolver:  Solving for Uy, Initial residual = 0.00268501, Final residual = 1.33921e-05, No Iterations 2
smoothSolver:  Solving for Uz, Initial residual = 0.00350023, Final residual = 3.08782e-05, No Iterations 2
DICPCG:  Solving for p, Initial residual = 0.021891, Final residual = 4.78538e-05, No Iterations 116
DICPCG:  Solving for p, Initial residual = 0.000598211, Final residual = 4.89158e-05, No Iterations 31
DICPCG:  Solving for p, Initial residual = 8.62508e-05, Final residual = 4.83859e-05, No Iterations 3
time step continuity errors : sum local = 3.60038e-09, global = 7.08033e-11, cumulative = -2.84068e-09
DICPCG:  Solving for p, Initial residual = 0.00457107, Final residual = 4.83463e-05, No Iterations 77
DICPCG:  Solving for p, Initial residual = 0.000266883, Final residual = 4.97683e-05, No Iterations 14
DICPCG:  Solving for p, Initial residual = 6.32162e-05, Final residual = 9.65868e-07, No Iterations 198
time step continuity errors : sum local = 7.19829e-11, global = -1.30074e-13, cumulative = -2.84081e-09
smoothSolver:  Solving for omega, Initial residual = 8.75413e-05, Final residual = 4.15138e-07, No Iterations 2
smoothSolver:  Solving for k, Initial residual = 0.00272679, Final residual = 2.09162e-05, No Iterations 2
bounding k, min: -0.0001017 max: 0.0266053 average: 0.0013532
ExecutionTime = 160.55 s  ClockTime = 162 s

Time = 0.27

Courant Number mean: 0.255307 max: 3.73957
smoothSolver:  Solving for Ux, Initial residual = 0.000333187, Final residual = 1.68918e-06, No Iterations 2
smoothSolver:  Solving for Uy, Initial residual = 0.00267711, Final residual = 1.33729e-05, No Iterations 2
smoothSolver:  Solving for Uz, Initial residual = 0.00345558, Final residual = 3.07448e-05, No Iterations 2
DICPCG:  Solving for p, Initial residual = 0.021832, Final residual = 4.90024e-05, No Iterations 115
DICPCG:  Solving for p, Initial residual = 0.000601868, Final residual = 4.88395e-05, No Iterations 31
DICPCG:  Solving for p, Initial residual = 8.64027e-05, Final residual = 4.60386e-05, No Iterations 3
time step continuity errors : sum local = 3.40028e-09, global = 1.08195e-10, cumulative = -2.73262e-09
DICPCG:  Solving for p, Initial residual = 0.00452891, Final residual = 4.99117e-05, No Iterations 76
DICPCG:  Solving for p, Initial residual = 0.000270367, Final residual = 4.88888e-05, No Iterations 14
DICPCG:  Solving for p, Initial residual = 6.27665e-05, Final residual = 9.2348e-07, No Iterations 200
time step continuity errors : sum local = 6.82996e-11, global = -2.86963e-13, cumulative = -2.7329e-09
smoothSolver:  Solving for omega, Initial residual = 8.53566e-05, Final residual = 4.12189e-07, No Iterations 2
smoothSolver:  Solving for k, Initial residual = 0.00263786, Final residual = 2.00756e-05, No Iterations 2
bounding k, min: -0.000109364 max: 0.0272597 average: 0.00137013
ExecutionTime = 165.91 s  ClockTime = 167 s

Time = 0.28

Courant Number mean: 0.255307 max: 3.73304
smoothSolver:  Solving for Ux, Initial residual = 0.000330187, Final residual = 1.70448e-06, No Iterations 2
smoothSolver:  Solving for Uy, Initial residual = 0.00267005, Final residual = 1.33495e-05, No Iterations 2
smoothSolver:  Solving for Uz, Initial residual = 0.0034157, Final residual = 3.06054e-05, No Iterations 2
DICPCG:  Solving for p, Initial residual = 0.0214428, Final residual = 4.98182e-05, No Iterations 116
DICPCG:  Solving for p, Initial residual = 0.000614938, Final residual = 4.91582e-05, No Iterations 31
DICPCG:  Solving for p, Initial residual = 8.7406e-05, Final residual = 4.66481e-05, No Iterations 3
time step continuity errors : sum local = 3.42635e-09, global = 6.01442e-11, cumulative = -2.67276e-09
DICPCG:  Solving for p, Initial residual = 0.00452615, Final residual = 4.93952e-05, No Iterations 77
DICPCG:  Solving for p, Initial residual = 0.000273181, Final residual = 4.95777e-05, No Iterations 14
DICPCG:  Solving for p, Initial residual = 6.3469e-05, Final residual = 9.88087e-07, No Iterations 199
time step continuity errors : sum local = 7.26606e-11, global = -3.85725e-13, cumulative = -2.67314e-09
smoothSolver:  Solving for omega, Initial residual = 8.31608e-05, Final residual = 4.07626e-07, No Iterations 2
smoothSolver:  Solving for k, Initial residual = 0.00255164, Final residual = 1.92503e-05, No Iterations 2
bounding k, min: -0.000141615 max: 0.0278928 average: 0.00138656
ExecutionTime = 171.23 s  ClockTime = 172 s

Time = 0.29

Courant Number mean: 0.255307 max: 3.72404
smoothSolver:  Solving for Ux, Initial residual = 0.000327526, Final residual = 1.71959e-06, No Iterations 2
smoothSolver:  Solving for Uy, Initial residual = 0.00266506, Final residual = 1.3341e-05, No Iterations 2
smoothSolver:  Solving for Uz, Initial residual = 0.00337669, Final residual = 3.04644e-05, No Iterations 2
DICPCG:  Solving for p, Initial residual = 0.0214751, Final residual = 4.96812e-05, No Iterations 116
DICPCG:  Solving for p, Initial residual = 0.00062313, Final residual = 4.85093e-05, No Iterations 32
DICPCG:  Solving for p, Initial residual = 8.80661e-05, Final residual = 4.56806e-05, No Iterations 3
time step continuity errors : sum local = 3.33812e-09, global = 1.06055e-10, cumulative = -2.56709e-09
DICPCG:  Solving for p, Initial residual = 0.00453886, Final residual = 4.87157e-05, No Iterations 77
DICPCG:  Solving for p, Initial residual = 0.000275674, Final residual = 4.89502e-05, No Iterations 14
DICPCG:  Solving for p, Initial residual = 6.31404e-05, Final residual = 8.91554e-07, No Iterations 200
time step continuity errors : sum local = 6.52208e-11, global = -3.4985e-13, cumulative = -2.56744e-09
smoothSolver:  Solving for omega, Initial residual = 8.09806e-05, Final residual = 4.02603e-07, No Iterations 2
smoothSolver:  Solving for k, Initial residual = 0.00247081, Final residual = 1.84777e-05, No Iterations 2
bounding k, min: -0.000153531 max: 0.0285077 average: 0.00140294
ExecutionTime = 176.59 s  ClockTime = 178 s

Time = 0.3

Courant Number mean: 0.255308 max: 3.71308
smoothSolver:  Solving for Ux, Initial residual = 0.000324987, Final residual = 1.73279e-06, No Iterations 2
smoothSolver:  Solving for Uy, Initial residual = 0.00266008, Final residual = 1.33301e-05, No Iterations 2
smoothSolver:  Solving for Uz, Initial residual = 0.00334042, Final residual = 3.03338e-05, No Iterations 2
DICPCG:  Solving for p, Initial residual = 0.0214941, Final residual = 4.86408e-05, No Iterations 117
DICPCG:  Solving for p, Initial residual = 0.000631913, Final residual = 4.8859e-05, No Iterations 32
DICPCG:  Solving for p, Initial residual = 8.90518e-05, Final residual = 4.59819e-05, No Iterations 3
time step continuity errors : sum local = 3.34372e-09, global = 8.85509e-11, cumulative = -2.47889e-09
DICPCG:  Solving for p, Initial residual = 0.00452656, Final residual = 4.91559e-05, No Iterations 77
DICPCG:  Solving for p, Initial residual = 0.000279168, Final residual = 4.89774e-05, No Iterations 14
DICPCG:  Solving for p, Initial residual = 6.34168e-05, Final residual = 9.56993e-07, No Iterations 199
time step continuity errors : sum local = 6.96611e-11, global = -2.40105e-13, cumulative = -2.47913e-09
smoothSolver:  Solving for omega, Initial residual = 7.90325e-05, Final residual = 3.97244e-07, No Iterations 2
smoothSolver:  Solving for k, Initial residual = 0.0023961, Final residual = 1.7738e-05, No Iterations 2
bounding k, min: -0.000144659 max: 0.0291046 average: 0.00141916
ExecutionTime = 181.99 s  ClockTime = 183 s

Time = 0.31

Courant Number mean: 0.255309 max: 3.70064
smoothSolver:  Solving for Ux, Initial residual = 0.000322661, Final residual = 1.74484e-06, No Iterations 2
smoothSolver:  Solving for Uy, Initial residual = 0.002656, Final residual = 1.33224e-05, No Iterations 2
smoothSolver:  Solving for Uz, Initial residual = 0.00330692, Final residual = 3.01732e-05, No Iterations 2
DICPCG:  Solving for p, Initial residual = 0.0213551, Final residual = 4.93651e-05, No Iterations 117
DICPCG:  Solving for p, Initial residual = 0.000640739, Final residual = 4.8993e-05, No Iterations 32
DICPCG:  Solving for p, Initial residual = 8.99025e-05, Final residual = 4.65332e-05, No Iterations 3
time step continuity errors : sum local = 3.37067e-09, global = 8.57877e-11, cumulative = -2.39334e-09
DICPCG:  Solving for p, Initial residual = 0.00453325, Final residual = 4.95852e-05, No Iterations 77
DICPCG:  Solving for p, Initial residual = 0.000282921, Final residual = 4.92864e-05, No Iterations 14
DICPCG:  Solving for p, Initial residual = 6.39982e-05, Final residual = 9.17676e-07, No Iterations 200
time step continuity errors : sum local = 6.65361e-11, global = -4.47186e-13, cumulative = -2.39379e-09
smoothSolver:  Solving for omega, Initial residual = 7.70444e-05, Final residual = 3.92279e-07, No Iterations 2
smoothSolver:  Solving for k, Initial residual = 0.00232218, Final residual = 1.70228e-05, No Iterations 2
bounding k, min: -0.000173162 max: 0.0296821 average: 0.00143504
ExecutionTime = 187.34 s  ClockTime = 189 s

Time = 0.32

Courant Number mean: 0.25531 max: 3.68733
smoothSolver:  Solving for Ux, Initial residual = 0.000320565, Final residual = 1.75686e-06, No Iterations 2
smoothSolver:  Solving for Uy, Initial residual = 0.00265349, Final residual = 1.33282e-05, No Iterations 2
smoothSolver:  Solving for Uz, Initial residual = 0.00327561, Final residual = 3.00545e-05, No Iterations 2
DICPCG:  Solving for p, Initial residual = 0.0215519, Final residual = 4.9406e-05, No Iterations 117
DICPCG:  Solving for p, Initial residual = 0.000648015, Final residual = 4.92116e-05, No Iterations 32
DICPCG:  Solving for p, Initial residual = 9.0804e-05, Final residual = 4.68713e-05, No Iterations 3
time step continuity errors : sum local = 3.38139e-09, global = 1.02578e-10, cumulative = -2.29121e-09
DICPCG:  Solving for p, Initial residual = 0.00453852, Final residual = 4.95023e-05, No Iterations 77
DICPCG:  Solving for p, Initial residual = 0.000287129, Final residual = 4.9428e-05, No Iterations 14
DICPCG:  Solving for p, Initial residual = 6.45026e-05, Final residual = 9.923e-07, No Iterations 199
time step continuity errors : sum local = 7.16418e-11, global = -3.26169e-13, cumulative = -2.29154e-09
smoothSolver:  Solving for omega, Initial residual = 7.50199e-05, Final residual = 3.85356e-07, No Iterations 2
smoothSolver:  Solving for k, Initial residual = 0.00225253, Final residual = 1.63371e-05, No Iterations 2
bounding k, min: -0.000207424 max: 0.0302406 average: 0.00145074
ExecutionTime = 192.71 s  ClockTime = 194 s

Time = 0.33

Courant Number mean: 0.255311 max: 3.67346
smoothSolver:  Solving for Ux, Initial residual = 0.00031864, Final residual = 1.76766e-06, No Iterations 2
smoothSolver:  Solving for Uy, Initial residual = 0.00265162, Final residual = 1.33349e-05, No Iterations 2
smoothSolver:  Solving for Uz, Initial residual = 0.00324645, Final residual = 2.99282e-05, No Iterations 2
DICPCG:  Solving for p, Initial residual = 0.02128, Final residual = 4.92702e-05, No Iterations 117
DICPCG:  Solving for p, Initial residual = 0.000661439, Final residual = 4.93763e-05, No Iterations 32
DICPCG:  Solving for p, Initial residual = 9.19373e-05, Final residual = 4.74996e-05, No Iterations 3
time step continuity errors : sum local = 3.41752e-09, global = 1.0905e-10, cumulative = -2.18248e-09
DICPCG:  Solving for p, Initial residual = 0.00452658, Final residual = 4.93671e-05, No Iterations 77
DICPCG:  Solving for p, Initial residual = 0.000291111, Final residual = 4.9395e-05, No Iterations 14
DICPCG:  Solving for p, Initial residual = 6.47409e-05, Final residual = 8.98691e-07, No Iterations 200
time step continuity errors : sum local = 6.4703e-11, global = -3.74281e-13, cumulative = -2.18286e-09
smoothSolver:  Solving for omega, Initial residual = 7.34611e-05, Final residual = 3.8111e-07, No Iterations 2
smoothSolver:  Solving for k, Initial residual = 0.00219126, Final residual = 1.56834e-05, No Iterations 2
bounding k, min: -0.000404086 max: 0.0307808 average: 0.0014661
ExecutionTime = 198.04 s  ClockTime = 199 s

Time = 0.34

Courant Number mean: 0.255313 max: 3.6593
smoothSolver:  Solving for Ux, Initial residual = 0.000316898, Final residual = 1.77743e-06, No Iterations 2
smoothSolver:  Solving for Uy, Initial residual = 0.00265038, Final residual = 1.33475e-05, No Iterations 2
smoothSolver:  Solving for Uz, Initial residual = 0.00321764, Final residual = 2.97367e-05, No Iterations 2
DICPCG:  Solving for p, Initial residual = 0.0216816, Final residual = 4.94069e-05, No Iterations 117
DICPCG:  Solving for p, Initial residual = 0.000666877, Final residual = 4.86419e-05, No Iterations 32
DICPCG:  Solving for p, Initial residual = 9.21897e-05, Final residual = 4.80056e-05, No Iterations 3
time step continuity errors : sum local = 3.44476e-09, global = 1.10569e-10, cumulative = -2.07229e-09
DICPCG:  Solving for p, Initial residual = 0.00456095, Final residual = 4.96086e-05, No Iterations 77
DICPCG:  Solving for p, Initial residual = 0.000294984, Final residual = 4.97907e-05, No Iterations 14
DICPCG:  Solving for p, Initial residual = 6.54785e-05, Final residual = 9.48893e-07, No Iterations 200
time step continuity errors : sum local = 6.81254e-11, global = -3.88875e-13, cumulative = -2.07268e-09
smoothSolver:  Solving for omega, Initial residual = 7.1961e-05, Final residual = 3.73373e-07, No Iterations 2
smoothSolver:  Solving for k, Initial residual = 0.00212826, Final residual = 1.50729e-05, No Iterations 2
bounding k, min: -0.000260488 max: 0.0313032 average: 0.00148135
ExecutionTime = 203.47 s  ClockTime = 205 s

Time = 0.35

Courant Number mean: 0.255315 max: 3.64506
smoothSolver:  Solving for Ux, Initial residual = 0.000315314, Final residual = 1.78713e-06, No Iterations 2
smoothSolver:  Solving for Uy, Initial residual = 0.00264989, Final residual = 1.33748e-05, No Iterations 2
smoothSolver:  Solving for Uz, Initial residual = 0.00319532, Final residual = 2.96508e-05, No Iterations 2
DICPCG:  Solving for p, Initial residual = 0.0221056, Final residual = 4.91042e-05, No Iterations 117
DICPCG:  Solving for p, Initial residual = 0.000679361, Final residual = 4.86246e-05, No Iterations 32
DICPCG:  Solving for p, Initial residual = 9.32023e-05, Final residual = 4.84279e-05, No Iterations 3
time step continuity errors : sum local = 3.46827e-09, global = 1.31301e-10, cumulative = -1.94138e-09
DICPCG:  Solving for p, Initial residual = 0.00462398, Final residual = 4.92929e-05, No Iterations 77
DICPCG:  Solving for p, Initial residual = 0.000299293, Final residual = 4.94076e-05, No Iterations 14
DICPCG:  Solving for p, Initial residual = 6.56338e-05, Final residual = 9.70586e-07, No Iterations 200
time step continuity errors : sum local = 6.95346e-11, global = -4.41127e-13, cumulative = -1.94182e-09
smoothSolver:  Solving for omega, Initial residual = 7.02692e-05, Final residual = 3.67176e-07, No Iterations 2
smoothSolver:  Solving for k, Initial residual = 0.00206496, Final residual = 1.44709e-05, No Iterations 2
bounding k, min: -0.000235014 max: 0.0318084 average: 0.00149644
ExecutionTime = 208.82 s  ClockTime = 210 s

Time = 0.36

Courant Number mean: 0.255317 max: 3.63107
smoothSolver:  Solving for Ux, Initial residual = 0.000313848, Final residual = 1.79502e-06, No Iterations 2
smoothSolver:  Solving for Uy, Initial residual = 0.00264923, Final residual = 1.33965e-05, No Iterations 2
smoothSolver:  Solving for Uz, Initial residual = 0.00316863, Final residual = 2.94769e-05, No Iterations 2
DICPCG:  Solving for p, Initial residual = 0.0214054, Final residual = 4.90557e-05, No Iterations 117
DICPCG:  Solving for p, Initial residual = 0.000684808, Final residual = 4.83329e-05, No Iterations 32
DICPCG:  Solving for p, Initial residual = 9.38517e-05, Final residual = 4.88655e-05, No Iterations 3
time step continuity errors : sum local = 3.4942e-09, global = 1.25718e-10, cumulative = -1.8161e-09
DICPCG:  Solving for p, Initial residual = 0.0045555, Final residual = 4.91818e-05, No Iterations 77
DICPCG:  Solving for p, Initial residual = 0.000302203, Final residual = 4.9934e-05, No Iterations 14
DICPCG:  Solving for p, Initial residual = 6.63612e-05, Final residual = 9.33604e-07, No Iterations 200
time step continuity errors : sum local = 6.67767e-11, global = -3.41177e-13, cumulative = -1.81644e-09
smoothSolver:  Solving for omega, Initial residual = 6.88001e-05, Final residual = 3.60563e-07, No Iterations 2
smoothSolver:  Solving for k, Initial residual = 0.00201098, Final residual = 1.3915e-05, No Iterations 2
bounding k, min: -0.000288647 max: 0.0322969 average: 0.0015115
ExecutionTime = 214.17 s  ClockTime = 215 s

Time = 0.37

Courant Number mean: 0.25532 max: 3.61868
smoothSolver:  Solving for Ux, Initial residual = 0.00031272, Final residual = 1.80346e-06, No Iterations 2
smoothSolver:  Solving for Uy, Initial residual = 0.00264921, Final residual = 1.34341e-05, No Iterations 2
smoothSolver:  Solving for Uz, Initial residual = 0.00314887, Final residual = 2.93428e-05, No Iterations 2
DICPCG:  Solving for p, Initial residual = 0.021985, Final residual = 4.92075e-05, No Iterations 117
DICPCG:  Solving for p, Initial residual = 0.000691999, Final residual = 4.96218e-05, No Iterations 32
DICPCG:  Solving for p, Initial residual = 9.60665e-05, Final residual = 4.29105e-05, No Iterations 4
time step continuity errors : sum local = 3.0691e-09, global = 1.24828e-10, cumulative = -1.69162e-09
DICPCG:  Solving for p, Initial residual = 0.0046108, Final residual = 4.89634e-05, No Iterations 77
DICPCG:  Solving for p, Initial residual = 0.000305351, Final residual = 4.9815e-05, No Iterations 14
DICPCG:  Solving for p, Initial residual = 6.66379e-05, Final residual = 9.49596e-07, No Iterations 200
time step continuity errors : sum local = 6.79197e-11, global = -4.04457e-13, cumulative = -1.69202e-09
smoothSolver:  Solving for omega, Initial residual = 6.77571e-05, Final residual = 3.54661e-07, No Iterations 2
smoothSolver:  Solving for k, Initial residual = 0.00195876, Final residual = 1.33604e-05, No Iterations 2
bounding k, min: -0.000228768 max: 0.0327694 average: 0.00152591
ExecutionTime = 219.52 s  ClockTime = 221 s

Time = 0.38

Courant Number mean: 0.255323 max: 3.60668
smoothSolver:  Solving for Ux, Initial residual = 0.000311688, Final residual = 1.81054e-06, No Iterations 2
smoothSolver:  Solving for Uy, Initial residual = 0.00264921, Final residual = 1.34704e-05, No Iterations 2
smoothSolver:  Solving for Uz, Initial residual = 0.00312676, Final residual = 2.91676e-05, No Iterations 2
DICPCG:  Solving for p, Initial residual = 0.0218633, Final residual = 4.94699e-05, No Iterations 117
DICPCG:  Solving for p, Initial residual = 0.000697997, Final residual = 4.76222e-05, No Iterations 32
DICPCG:  Solving for p, Initial residual = 9.54011e-05, Final residual = 4.96215e-05, No Iterations 3
time step continuity errors : sum local = 3.54705e-09, global = 1.37588e-10, cumulative = -1.55443e-09
DICPCG:  Solving for p, Initial residual = 0.00462336, Final residual = 4.85034e-05, No Iterations 77
DICPCG:  Solving for p, Initial residual = 0.000307999, Final residual = 4.59789e-05, No Iterations 15
DICPCG:  Solving for p, Initial residual = 6.33832e-05, Final residual = 9.79767e-07, No Iterations 200
time step continuity errors : sum local = 7.00324e-11, global = -5.68846e-13, cumulative = -1.555e-09
smoothSolver:  Solving for omega, Initial residual = 6.63045e-05, Final residual = 3.45542e-07, No Iterations 2
smoothSolver:  Solving for k, Initial residual = 0.00190455, Final residual = 1.28414e-05, No Iterations 2
bounding k, min: -0.000223526 max: 0.0332292 average: 0.0015402
ExecutionTime = 224.91 s  ClockTime = 226 s

Time = 0.39

Courant Number mean: 0.255326 max: 3.59533
smoothSolver:  Solving for Ux, Initial residual = 0.000310767, Final residual = 1.81809e-06, No Iterations 2
smoothSolver:  Solving for Uy, Initial residual = 0.00264955, Final residual = 1.35212e-05, No Iterations 2
smoothSolver:  Solving for Uz, Initial residual = 0.00310607, Final residual = 2.90526e-05, No Iterations 2
DICPCG:  Solving for p, Initial residual = 0.0212098, Final residual = 4.96147e-05, No Iterations 117
DICPCG:  Solving for p, Initial residual = 0.000706763, Final residual = 4.78328e-05, No Iterations 32
DICPCG:  Solving for p, Initial residual = 9.64954e-05, Final residual = 4.45429e-05, No Iterations 4
time step continuity errors : sum local = 3.18357e-09, global = 1.55347e-10, cumulative = -1.39965e-09
DICPCG:  Solving for p, Initial residual = 0.00458687, Final residual = 4.78051e-05, No Iterations 77
DICPCG:  Solving for p, Initial residual = 0.000311364, Final residual = 4.61663e-05, No Iterations 15
DICPCG:  Solving for p, Initial residual = 6.38558e-05, Final residual = 9.33664e-07, No Iterations 200
time step continuity errors : sum local = 6.6725e-11, global = -5.51377e-13, cumulative = -1.40021e-09
smoothSolver:  Solving for omega, Initial residual = 6.50047e-05, Final residual = 3.39277e-07, No Iterations 2
smoothSolver:  Solving for k, Initial residual = 0.00185487, Final residual = 1.23556e-05, No Iterations 2
bounding k, min: -0.000423871 max: 0.033674 average: 0.00155464
ExecutionTime = 230.34 s  ClockTime = 232 s

Time = 0.4

Courant Number mean: 0.25533 max: 3.5845
smoothSolver:  Solving for Ux, Initial residual = 0.000309862, Final residual = 1.82375e-06, No Iterations 2
smoothSolver:  Solving for Uy, Initial residual = 0.00264917, Final residual = 1.35637e-05, No Iterations 2
smoothSolver:  Solving for Uz, Initial residual = 0.00308596, Final residual = 2.88245e-05, No Iterations 2
DICPCG:  Solving for p, Initial residual = 0.0216866, Final residual = 4.9526e-05, No Iterations 117
DICPCG:  Solving for p, Initial residual = 0.000714548, Final residual = 4.95444e-05, No Iterations 31
DICPCG:  Solving for p, Initial residual = 9.89648e-05, Final residual = 4.63955e-05, No Iterations 4
time step continuity errors : sum local = 3.32123e-09, global = 1.42784e-10, cumulative = -1.25742e-09
DICPCG:  Solving for p, Initial residual = 0.00461583, Final residual = 4.8383e-05, No Iterations 77
DICPCG:  Solving for p, Initial residual = 0.000315073, Final residual = 4.6641e-05, No Iterations 15
DICPCG:  Solving for p, Initial residual = 6.49247e-05, Final residual = 9.24526e-07, No Iterations 201
time step continuity errors : sum local = 6.61746e-11, global = -6.35757e-13, cumulative = -1.25806e-09
smoothSolver:  Solving for omega, Initial residual = 6.39827e-05, Final residual = 3.36331e-07, No Iterations 2
smoothSolver:  Solving for k, Initial residual = 0.0018102, Final residual = 1.18895e-05, No Iterations 2
bounding k, min: -0.000310935 max: 0.0341039 average: 0.00156887
ExecutionTime = 236.19 s  ClockTime = 238 s

Time = 0.41

Courant Number mean: 0.255334 max: 3.57501
smoothSolver:  Solving for Ux, Initial residual = 0.000309062, Final residual = 1.83014e-06, No Iterations 2
smoothSolver:  Solving for Uy, Initial residual = 0.00264938, Final residual = 1.36191e-05, No Iterations 2
smoothSolver:  Solving for Uz, Initial residual = 0.00306963, Final residual = 2.86896e-05, No Iterations 2
DICPCG:  Solving for p, Initial residual = 0.0219642, Final residual = 4.95079e-05, No Iterations 117
DICPCG:  Solving for p, Initial residual = 0.000719934, Final residual = 4.88129e-05, No Iterations 31
DICPCG:  Solving for p, Initial residual = 9.92138e-05, Final residual = 4.58684e-05, No Iterations 4
time step continuity errors : sum local = 3.28313e-09, global = 1.52611e-10, cumulative = -1.10545e-09
DICPCG:  Solving for p, Initial residual = 0.00467918, Final residual = 4.79273e-05, No Iterations 77
DICPCG:  Solving for p, Initial residual = 0.000318011, Final residual = 4.63048e-05, No Iterations 15
DICPCG:  Solving for p, Initial residual = 6.50634e-05, Final residual = 9.67654e-07, No Iterations 200
time step continuity errors : sum local = 6.92595e-11, global = -5.69451e-13, cumulative = -1.10602e-09
smoothSolver:  Solving for omega, Initial residual = 6.30547e-05, Final residual = 3.29589e-07, No Iterations 2
smoothSolver:  Solving for k, Initial residual = 0.00176653, Final residual = 1.14415e-05, No Iterations 2
bounding k, min: -0.000203124 max: 0.0345195 average: 0.00158241
ExecutionTime = 241.59 s  ClockTime = 244 s

Time = 0.42

Courant Number mean: 0.255338 max: 3.56941
smoothSolver:  Solving for Ux, Initial residual = 0.000308245, Final residual = 1.83516e-06, No Iterations 2
smoothSolver:  Solving for Uy, Initial residual = 0.0026502, Final residual = 1.36663e-05, No Iterations 2
smoothSolver:  Solving for Uz, Initial residual = 0.00304964, Final residual = 2.84801e-05, No Iterations 2
DICPCG:  Solving for p, Initial residual = 0.0216946, Final residual = 4.951e-05, No Iterations 117
DICPCG:  Solving for p, Initial residual = 0.000726478, Final residual = 4.86457e-05, No Iterations 31
DICPCG:  Solving for p, Initial residual = 0.000100555, Final residual = 4.64858e-05, No Iterations 4
time step continuity errors : sum local = 3.33198e-09, global = 1.52367e-10, cumulative = -9.53649e-10
DICPCG:  Solving for p, Initial residual = 0.00464609, Final residual = 4.76259e-05, No Iterations 77
DICPCG:  Solving for p, Initial residual = 0.000321748, Final residual = 4.69082e-05, No Iterations 15
DICPCG:  Solving for p, Initial residual = 6.6038e-05, Final residual = 9.59612e-07, No Iterations 200
time step continuity errors : sum local = 6.87746e-11, global = -6.12715e-13, cumulative = -9.54262e-10
smoothSolver:  Solving for omega, Initial residual = 6.21312e-05, Final residual = 3.25265e-07, No Iterations 2
smoothSolver:  Solving for k, Initial residual = 0.00172289, Final residual = 1.10217e-05, No Iterations 2
bounding k, min: -0.000274764 max: 0.0349211 average: 0.00159616
ExecutionTime = 247 s  ClockTime = 249 s

Time = 0.43

Courant Number mean: 0.255342 max: 3.56541
smoothSolver:  Solving for Ux, Initial residual = 0.000307521, Final residual = 1.84094e-06, No Iterations 2
smoothSolver:  Solving for Uy, Initial residual = 0.00265179, Final residual = 1.37268e-05, No Iterations 2
smoothSolver:  Solving for Uz, Initial residual = 0.00303428, Final residual = 2.83177e-05, No Iterations 2
DICPCG:  Solving for p, Initial residual = 0.0218643, Final residual = 4.93511e-05, No Iterations 117
DICPCG:  Solving for p, Initial residual = 0.000735271, Final residual = 4.75347e-05, No Iterations 31
DICPCG:  Solving for p, Initial residual = 0.00010023, Final residual = 4.61176e-05, No Iterations 4
time step continuity errors : sum local = 3.30482e-09, global = 1.66936e-10, cumulative = -7.87326e-10
DICPCG:  Solving for p, Initial residual = 0.00468965, Final residual = 4.72613e-05, No Iterations 77
DICPCG:  Solving for p, Initial residual = 0.000324829, Final residual = 4.61655e-05, No Iterations 15
DICPCG:  Solving for p, Initial residual = 6.5731e-05, Final residual = 9.49386e-07, No Iterations 201
time step continuity errors : sum local = 6.80342e-11, global = -7.61769e-13, cumulative = -7.88087e-10
smoothSolver:  Solving for omega, Initial residual = 6.13653e-05, Final residual = 3.18551e-07, No Iterations 2
smoothSolver:  Solving for k, Initial residual = 0.00168286, Final residual = 1.06097e-05, No Iterations 2
bounding k, min: -0.000385654 max: 0.0353093 average: 0.00160966
ExecutionTime = 252.38 s  ClockTime = 255 s

Time = 0.44

Courant Number mean: 0.255346 max: 3.56148
smoothSolver:  Solving for Ux, Initial residual = 0.00030682, Final residual = 1.84522e-06, No Iterations 2
smoothSolver:  Solving for Uy, Initial residual = 0.00265337, Final residual = 1.37774e-05, No Iterations 2
smoothSolver:  Solving for Uz, Initial residual = 0.00301938, Final residual = 2.81184e-05, No Iterations 2
DICPCG:  Solving for p, Initial residual = 0.0221926, Final residual = 4.90132e-05, No Iterations 117
DICPCG:  Solving for p, Initial residual = 0.000748056, Final residual = 4.96948e-05, No Iterations 30
DICPCG:  Solving for p, Initial residual = 0.000103742, Final residual = 4.84966e-05, No Iterations 4
time step continuity errors : sum local = 3.47701e-09, global = 1.51408e-10, cumulative = -6.36679e-10
DICPCG:  Solving for p, Initial residual = 0.00472902, Final residual = 4.73013e-05, No Iterations 77
DICPCG:  Solving for p, Initial residual = 0.000329688, Final residual = 4.72387e-05, No Iterations 15
DICPCG:  Solving for p, Initial residual = 6.73668e-05, Final residual = 9.78398e-07, No Iterations 201
time step continuity errors : sum local = 7.01498e-11, global = -8.41114e-13, cumulative = -6.3752e-10
smoothSolver:  Solving for omega, Initial residual = 6.08214e-05, Final residual = 3.13779e-07, No Iterations 2
smoothSolver:  Solving for k, Initial residual = 0.0016434, Final residual = 1.02185e-05, No Iterations 2
bounding k, min: -0.000348206 max: 0.0356845 average: 0.00162257
ExecutionTime = 257.76 s  ClockTime = 260 s

Time = 0.45

Courant Number mean: 0.255351 max: 3.55762
smoothSolver:  Solving for Ux, Initial residual = 0.000306226, Final residual = 1.84949e-06, No Iterations 2
smoothSolver:  Solving for Uy, Initial residual = 0.00265497, Final residual = 1.38351e-05, No Iterations 2
smoothSolver:  Solving for Uz, Initial residual = 0.00300394, Final residual = 2.79301e-05, No Iterations 2
DICPCG:  Solving for p, Initial residual = 0.0223406, Final residual = 4.93766e-05, No Iterations 117
DICPCG:  Solving for p, Initial residual = 0.000759315, Final residual = 4.71526e-05, No Iterations 31
DICPCG:  Solving for p, Initial residual = 0.000102752, Final residual = 4.68657e-05, No Iterations 4
time step continuity errors : sum local = 3.35895e-09, global = 1.76512e-10, cumulative = -4.61008e-10
DICPCG:  Solving for p, Initial residual = 0.00471024, Final residual = 4.95057e-05, No Iterations 76
DICPCG:  Solving for p, Initial residual = 0.000334947, Final residual = 4.63107e-05, No Iterations 15
DICPCG:  Solving for p, Initial residual = 6.67558e-05, Final residual = 9.62492e-07, No Iterations 202
time step continuity errors : sum local = 6.89861e-11, global = -7.33218e-13, cumulative = -4.61741e-10
smoothSolver:  Solving for omega, Initial residual = 6.01796e-05, Final residual = 3.06699e-07, No Iterations 2
smoothSolver:  Solving for k, Initial residual = 0.00160548, Final residual = 9.85276e-06, No Iterations 2
bounding k, min: -0.000446324 max: 0.0360471 average: 0.00163578
ExecutionTime = 263.24 s  ClockTime = 266 s

Time = 0.46

Courant Number mean: 0.255355 max: 3.55375
smoothSolver:  Solving for Ux, Initial residual = 0.000305613, Final residual = 1.85386e-06, No Iterations 2
smoothSolver:  Solving for Uy, Initial residual = 0.00265662, Final residual = 1.3898e-05, No Iterations 2
smoothSolver:  Solving for Uz, Initial residual = 0.00299135, Final residual = 2.7757e-05, No Iterations 2
DICPCG:  Solving for p, Initial residual = 0.0230355, Final residual = 4.87656e-05, No Iterations 117
DICPCG:  Solving for p, Initial residual = 0.000771816, Final residual = 4.92879e-05, No Iterations 27
DICPCG:  Solving for p, Initial residual = 0.000104286, Final residual = 4.88181e-05, No Iterations 4
time step continuity errors : sum local = 3.50175e-09, global = 1.70419e-10, cumulative = -2.91322e-10
DICPCG:  Solving for p, Initial residual = 0.0047825, Final residual = 4.95523e-05, No Iterations 76
DICPCG:  Solving for p, Initial residual = 0.000339327, Final residual = 4.64972e-05, No Iterations 15
DICPCG:  Solving for p, Initial residual = 6.74506e-05, Final residual = 9.99741e-07, No Iterations 202
time step continuity errors : sum local = 7.17225e-11, global = -7.64862e-13, cumulative = -2.92087e-10
smoothSolver:  Solving for omega, Initial residual = 5.97294e-05, Final residual = 3.01862e-07, No Iterations 2
smoothSolver:  Solving for k, Initial residual = 0.00156931, Final residual = 9.50011e-06, No Iterations 2
bounding k, min: -0.000340069 max: 0.0363975 average: 0.00164849
ExecutionTime = 268.59 s  ClockTime = 271 s

Time = 0.47

Courant Number mean: 0.25536 max: 3.54993
smoothSolver:  Solving for Ux, Initial residual = 0.000304975, Final residual = 1.85644e-06, No Iterations 2
smoothSolver:  Solving for Uy, Initial residual = 0.00265664, Final residual = 1.39473e-05, No Iterations 2
smoothSolver:  Solving for Uz, Initial residual = 0.00297631, Final residual = 2.75439e-05, No Iterations 2
DICPCG:  Solving for p, Initial residual = 0.0232775, Final residual = 4.99663e-05, No Iterations 115
DICPCG:  Solving for p, Initial residual = 0.000790834, Final residual = 4.87474e-05, No Iterations 30
DICPCG:  Solving for p, Initial residual = 0.000106606, Final residual = 4.88432e-05, No Iterations 4
time step continuity errors : sum local = 3.50229e-09, global = 1.85052e-10, cumulative = -1.07035e-10
DICPCG:  Solving for p, Initial residual = 0.00483904, Final residual = 4.88542e-05, No Iterations 76
DICPCG:  Solving for p, Initial residual = 0.000342268, Final residual = 4.57099e-05, No Iterations 15
DICPCG:  Solving for p, Initial residual = 6.71373e-05, Final residual = 9.86815e-07, No Iterations 201
time step continuity errors : sum local = 7.07664e-11, global = -6.54963e-13, cumulative = -1.0769e-10
smoothSolver:  Solving for omega, Initial residual = 5.91175e-05, Final residual = 2.96349e-07, No Iterations 2
smoothSolver:  Solving for k, Initial residual = 0.00153247, Final residual = 9.16008e-06, No Iterations 2
bounding k, min: -0.000366303 max: 0.0367362 average: 0.00166112
ExecutionTime = 273.96 s  ClockTime = 276 s

Time = 0.48

Courant Number mean: 0.255365 max: 3.54725
smoothSolver:  Solving for Ux, Initial residual = 0.000304391, Final residual = 1.85956e-06, No Iterations 2
smoothSolver:  Solving for Uy, Initial residual = 0.00265685, Final residual = 1.40069e-05, No Iterations 2
smoothSolver:  Solving for Uz, Initial residual = 0.00296131, Final residual = 2.73463e-05, No Iterations 2
DICPCG:  Solving for p, Initial residual = 0.0225472, Final residual = 4.86227e-05, No Iterations 117
DICPCG:  Solving for p, Initial residual = 0.000793017, Final residual = 4.91516e-05, No Iterations 27
DICPCG:  Solving for p, Initial residual = 0.000106636, Final residual = 4.99688e-05, No Iterations 4
time step continuity errors : sum local = 3.58077e-09, global = 1.87649e-10, cumulative = 7.99586e-11
DICPCG:  Solving for p, Initial residual = 0.004802, Final residual = 4.88792e-05, No Iterations 76
DICPCG:  Solving for p, Initial residual = 0.000345944, Final residual = 4.67417e-05, No Iterations 15
DICPCG:  Solving for p, Initial residual = 6.84018e-05, Final residual = 9.48501e-07, No Iterations 203
time step continuity errors : sum local = 6.79759e-11, global = -8.894e-13, cumulative = 7.90692e-11
smoothSolver:  Solving for omega, Initial residual = 5.86384e-05, Final residual = 2.91001e-07, No Iterations 2
smoothSolver:  Solving for k, Initial residual = 0.00150199, Final residual = 8.84457e-06, No Iterations 2
bounding k, min: -0.000416805 max: 0.0370634 average: 0.00167373
ExecutionTime = 279.32 s  ClockTime = 282 s

Time = 0.49

Courant Number mean: 0.25537 max: 3.54443
smoothSolver:  Solving for Ux, Initial residual = 0.000303893, Final residual = 1.86149e-06, No Iterations 2
smoothSolver:  Solving for Uy, Initial residual = 0.00265646, Final residual = 1.40542e-05, No Iterations 2
smoothSolver:  Solving for Uz, Initial residual = 0.00294875, Final residual = 2.71545e-05, No Iterations 2
DICPCG:  Solving for p, Initial residual = 0.022945, Final residual = 4.85487e-05, No Iterations 117
DICPCG:  Solving for p, Initial residual = 0.000803433, Final residual = 4.85456e-05, No Iterations 27
DICPCG:  Solving for p, Initial residual = 0.000107396, Final residual = 4.99684e-05, No Iterations 4
time step continuity errors : sum local = 3.58512e-09, global = 1.63652e-10, cumulative = 2.42722e-10
DICPCG:  Solving for p, Initial residual = 0.00486779, Final residual = 4.89012e-05, No Iterations 76
DICPCG:  Solving for p, Initial residual = 0.000348022, Final residual = 4.60297e-05, No Iterations 15
DICPCG:  Solving for p, Initial residual = 6.81063e-05, Final residual = 9.30934e-07, No Iterations 203
time step continuity errors : sum local = 6.6789e-11, global = -9.55873e-13, cumulative = 2.41766e-10
smoothSolver:  Solving for omega, Initial residual = 5.86132e-05, Final residual = 2.85048e-07, No Iterations 2
smoothSolver:  Solving for k, Initial residual = 0.00147374, Final residual = 8.53269e-06, No Iterations 2
bounding k, min: -0.000368154 max: 0.0373808 average: 0.00168585
ExecutionTime = 284.7 s  ClockTime = 287 s

Time = 0.5

Courant Number mean: 0.255375 max: 3.54158
smoothSolver:  Solving for Ux, Initial residual = 0.000303445, Final residual = 1.86391e-06, No Iterations 2
smoothSolver:  Solving for Uy, Initial residual = 0.00265677, Final residual = 1.41111e-05, No Iterations 2
smoothSolver:  Solving for Uz, Initial residual = 0.00293707, Final residual = 2.69391e-05, No Iterations 2
DICPCG:  Solving for p, Initial residual = 0.024058, Final residual = 4.93778e-05, No Iterations 116
DICPCG:  Solving for p, Initial residual = 0.000815045, Final residual = 4.89311e-05, No Iterations 27
DICPCG:  Solving for p, Initial residual = 0.00010877, Final residual = 4.59737e-05, No Iterations 5
time step continuity errors : sum local = 3.29703e-09, global = 2.10993e-10, cumulative = 4.52759e-10
DICPCG:  Solving for p, Initial residual = 0.00498124, Final residual = 4.80998e-05, No Iterations 76
DICPCG:  Solving for p, Initial residual = 0.000351404, Final residual = 4.55057e-05, No Iterations 15
DICPCG:  Solving for p, Initial residual = 6.80501e-05, Final residual = 9.40747e-07, No Iterations 203
time step continuity errors : sum local = 6.74585e-11, global = -7.93035e-13, cumulative = 4.51966e-10
smoothSolver:  Solving for omega, Initial residual = 5.80739e-05, Final residual = 2.81138e-07, No Iterations 2
smoothSolver:  Solving for k, Initial residual = 0.00143877, Final residual = 8.24263e-06, No Iterations 2
bounding k, min: -0.000408384 max: 0.0376883 average: 0.00169766
ExecutionTime = 290.03 s  ClockTime = 292 s

Time = 0.51

Courant Number mean: 0.25538 max: 3.53878
smoothSolver:  Solving for Ux, Initial residual = 0.000302975, Final residual = 1.86428e-06, No Iterations 2
smoothSolver:  Solving for Uy, Initial residual = 0.00265633, Final residual = 1.4148e-05, No Iterations 2
smoothSolver:  Solving for Uz, Initial residual = 0.00292288, Final residual = 2.67135e-05, No Iterations 2
DICPCG:  Solving for p, Initial residual = 0.0235688, Final residual = 4.96979e-05, No Iterations 116
DICPCG:  Solving for p, Initial residual = 0.000825, Final residual = 4.85526e-05, No Iterations 27
DICPCG:  Solving for p, Initial residual = 0.000109698, Final residual = 4.61796e-05, No Iterations 5
time step continuity errors : sum local = 3.31127e-09, global = 1.9218e-10, cumulative = 6.44146e-10
DICPCG:  Solving for p, Initial residual = 0.00493225, Final residual = 4.7882e-05, No Iterations 76
DICPCG:  Solving for p, Initial residual = 0.000354061, Final residual = 4.57824e-05, No Iterations 15
DICPCG:  Solving for p, Initial residual = 6.85168e-05, Final residual = 9.84458e-07, No Iterations 203
time step continuity errors : sum local = 7.05889e-11, global = -9.81081e-13, cumulative = 6.43165e-10
smoothSolver:  Solving for omega, Initial residual = 5.76793e-05, Final residual = 2.75708e-07, No Iterations 2
smoothSolver:  Solving for k, Initial residual = 0.00140933, Final residual = 7.95773e-06, No Iterations 2
bounding k, min: -0.000368871 max: 0.0379855 average: 0.00170959
ExecutionTime = 295.41 s  ClockTime = 298 s

Time = 0.52

Courant Number mean: 0.255385 max: 3.53597
smoothSolver:  Solving for Ux, Initial residual = 0.000302492, Final residual = 1.86488e-06, No Iterations 2
smoothSolver:  Solving for Uy, Initial residual = 0.00265634, Final residual = 1.41908e-05, No Iterations 2
smoothSolver:  Solving for Uz, Initial residual = 0.00291012, Final residual = 2.64993e-05, No Iterations 2
DICPCG:  Solving for p, Initial residual = 0.0224527, Final residual = 4.96597e-05, No Iterations 116
DICPCG:  Solving for p, Initial residual = 0.0008237, Final residual = 4.8345e-05, No Iterations 27
DICPCG:  Solving for p, Initial residual = 0.000110804, Final residual = 4.66217e-05, No Iterations 5
time step continuity errors : sum local = 3.34099e-09, global = 1.90065e-10, cumulative = 8.3323e-10
DICPCG:  Solving for p, Initial residual = 0.0049228, Final residual = 4.99657e-05, No Iterations 75
DICPCG:  Solving for p, Initial residual = 0.000357317, Final residual = 4.74182e-05, No Iterations 15
[...]
bounding k, min: -0.000571484 max: 0.0458406 average: 0.00222159
ExecutionTime = 976.13 s  ClockTime = 987 s

Time = 1.88

Courant Number mean: 0.255874 max: 3.18555
smoothSolver:  Solving for Ux, Initial residual = 0.000231921, Final residual = 7.64126e-07, No Iterations 2
smoothSolver:  Solving for Uy, Initial residual = 0.00155759, Final residual = 5.98154e-06, No Iterations 2
smoothSolver:  Solving for Uz, Initial residual = 0.000951064, Final residual = 4.00671e-06, No Iterations 2
DICPCG:  Solving for p, Initial residual = 0.0200245, Final residual = 4.77161e-05, No Iterations 61
DICPCG:  Solving for p, Initial residual = 0.00049961, Final residual = 4.98192e-05, No Iterations 18
DICPCG:  Solving for p, Initial residual = 9.74334e-05, Final residual = 4.8524e-05, No Iterations 3
time step continuity errors : sum local = 3.51168e-09, global = 3.1029e-10, cumulative = 4.66463e-08
DICPCG:  Solving for p, Initial residual = 0.00319695, Final residual = 4.95476e-05, No Iterations 48
DICPCG:  Solving for p, Initial residual = 0.000189426, Final residual = 4.5932e-05, No Iterations 9
DICPCG:  Solving for p, Initial residual = 5.77492e-05, Final residual = 9.88915e-07, No Iterations 183
time step continuity errors : sum local = 7.15713e-11, global = 2.82178e-12, cumulative = 4.66491e-08
smoothSolver:  Solving for omega, Initial residual = 3.56717e-05, Final residual = 6.2626e-08, No Iterations 2
smoothSolver:  Solving for k, Initial residual = 0.000487003, Final residual = 4.22028e-07, No Iterations 2
bounding k, min: -0.000678547 max: 0.0458337 average: 0.00222187
ExecutionTime = 980.82 s  ClockTime = 992 s

Time = 1.89

Courant Number mean: 0.255874 max: 3.18348
smoothSolver:  Solving for Ux, Initial residual = 0.000231326, Final residual = 7.59461e-07, No Iterations 2
smoothSolver:  Solving for Uy, Initial residual = 0.00155164, Final residual = 5.9358e-06, No Iterations 2
smoothSolver:  Solving for Uz, Initial residual = 0.000943533, Final residual = 3.94542e-06, No Iterations 2
DICPCG:  Solving for p, Initial residual = 0.0195332, Final residual = 4.74323e-05, No Iterations 61
DICPCG:  Solving for p, Initial residual = 0.000487726, Final residual = 4.85875e-05, No Iterations 18
DICPCG:  Solving for p, Initial residual = 9.57623e-05, Final residual = 4.75123e-05, No Iterations 3
time step continuity errors : sum local = 3.4371e-09, global = 3.03775e-10, cumulative = 4.69529e-08
DICPCG:  Solving for p, Initial residual = 0.00307638, Final residual = 4.97326e-05, No Iterations 48
DICPCG:  Solving for p, Initial residual = 0.000185353, Final residual = 4.65166e-05, No Iterations 9
DICPCG:  Solving for p, Initial residual = 5.79886e-05, Final residual = 9.92035e-07, No Iterations 182
time step continuity errors : sum local = 7.17853e-11, global = 2.74547e-12, cumulative = 4.69556e-08
smoothSolver:  Solving for omega, Initial residual = 3.54733e-05, Final residual = 6.27004e-08, No Iterations 2
smoothSolver:  Solving for k, Initial residual = 0.000486203, Final residual = 4.22428e-07, No Iterations 2
bounding k, min: -0.000502861 max: 0.0458267 average: 0.00222244
ExecutionTime = 985.42 s  ClockTime = 996 s

Time = 1.9

Courant Number mean: 0.255875 max: 3.18136
smoothSolver:  Solving for Ux, Initial residual = 0.000230846, Final residual = 7.55114e-07, No Iterations 2
smoothSolver:  Solving for Uy, Initial residual = 0.00154542, Final residual = 5.89302e-06, No Iterations 2
smoothSolver:  Solving for Uz, Initial residual = 0.000938063, Final residual = 3.91812e-06, No Iterations 2
DICPCG:  Solving for p, Initial residual = 0.0196381, Final residual = 4.84406e-05, No Iterations 61
DICPCG:  Solving for p, Initial residual = 0.000489552, Final residual = 4.98127e-05, No Iterations 18
DICPCG:  Solving for p, Initial residual = 9.71936e-05, Final residual = 4.83327e-05, No Iterations 3
time step continuity errors : sum local = 3.49669e-09, global = 3.07433e-10, cumulative = 4.72631e-08
DICPCG:  Solving for p, Initial residual = 0.00306398, Final residual = 4.98529e-05, No Iterations 49
DICPCG:  Solving for p, Initial residual = 0.000185483, Final residual = 4.66281e-05, No Iterations 9
DICPCG:  Solving for p, Initial residual = 5.80739e-05, Final residual = 9.78545e-07, No Iterations 181
time step continuity errors : sum local = 7.08073e-11, global = 2.76512e-12, cumulative = 4.72658e-08
smoothSolver:  Solving for omega, Initial residual = 3.5619e-05, Final residual = 6.14483e-08, No Iterations 2
smoothSolver:  Solving for k, Initial residual = 0.000487678, Final residual = 4.25729e-07, No Iterations 2
bounding k, min: -0.000613288 max: 0.0458196 average: 0.00222272
ExecutionTime = 990.06 s  ClockTime = 1001 s

Time = 1.91

Courant Number mean: 0.255875 max: 3.1792
smoothSolver:  Solving for Ux, Initial residual = 0.000230363, Final residual = 7.50692e-07, No Iterations 2
smoothSolver:  Solving for Uy, Initial residual = 0.00153981, Final residual = 5.85174e-06, No Iterations 2
smoothSolver:  Solving for Uz, Initial residual = 0.000932524, Final residual = 3.8846e-06, No Iterations 2
DICPCG:  Solving for p, Initial residual = 0.019727, Final residual = 4.98255e-05, No Iterations 60
DICPCG:  Solving for p, Initial residual = 0.000489427, Final residual = 4.8991e-05, No Iterations 18
DICPCG:  Solving for p, Initial residual = 9.60301e-05, Final residual = 4.72028e-05, No Iterations 3
time step continuity errors : sum local = 3.4134e-09, global = 2.99413e-10, cumulative = 4.75653e-08
DICPCG:  Solving for p, Initial residual = 0.00311097, Final residual = 4.96718e-05, No Iterations 48
DICPCG:  Solving for p, Initial residual = 0.000184786, Final residual = 4.63966e-05, No Iterations 9
DICPCG:  Solving for p, Initial residual = 5.7611e-05, Final residual = 9.88039e-07, No Iterations 182
time step continuity errors : sum local = 7.14592e-11, global = 2.79951e-12, cumulative = 4.75681e-08
smoothSolver:  Solving for omega, Initial residual = 3.5331e-05, Final residual = 6.21435e-08, No Iterations 2
smoothSolver:  Solving for k, Initial residual = 0.000482882, Final residual = 4.24e-07, No Iterations 2
bounding k, min: -0.000522727 max: 0.0458123 average: 0.00222297
ExecutionTime = 994.62 s  ClockTime = 1005 s

Time = 1.92

Courant Number mean: 0.255875 max: 3.17682
smoothSolver:  Solving for Ux, Initial residual = 0.00022983, Final residual = 7.46286e-07, No Iterations 2
smoothSolver:  Solving for Uy, Initial residual = 0.00153417, Final residual = 5.80696e-06, No Iterations 2
smoothSolver:  Solving for Uz, Initial residual = 0.000925687, Final residual = 3.83304e-06, No Iterations 2
DICPCG:  Solving for p, Initial residual = 0.019522, Final residual = 4.84624e-05, No Iterations 60
DICPCG:  Solving for p, Initial residual = 0.000484521, Final residual = 4.86272e-05, No Iterations 18
DICPCG:  Solving for p, Initial residual = 9.55976e-05, Final residual = 4.6925e-05, No Iterations 3
time step continuity errors : sum local = 3.39102e-09, global = 2.93681e-10, cumulative = 4.78617e-08
DICPCG:  Solving for p, Initial residual = 0.00306057, Final residual = 4.9639e-05, No Iterations 48
DICPCG:  Solving for p, Initial residual = 0.000183204, Final residual = 4.68436e-05, No Iterations 9
DICPCG:  Solving for p, Initial residual = 5.80488e-05, Final residual = 9.76125e-07, No Iterations 182
time step continuity errors : sum local = 7.05588e-11, global = 2.8057e-12, cumulative = 4.78645e-08
smoothSolver:  Solving for omega, Initial residual = 3.50883e-05, Final residual = 6.06354e-08, No Iterations 2
smoothSolver:  Solving for k, Initial residual = 0.000483814, Final residual = 4.18201e-07, No Iterations 2
bounding k, min: -0.000618806 max: 0.0458049 average: 0.00222343
ExecutionTime = 999.22 s  ClockTime = 1010 s

Time = 1.93

Courant Number mean: 0.255875 max: 3.17471
smoothSolver:  Solving for Ux, Initial residual = 0.000229376, Final residual = 7.42008e-07, No Iterations 2
smoothSolver:  Solving for Uy, Initial residual = 0.00152855, Final residual = 5.7648e-06, No Iterations 2
smoothSolver:  Solving for Uz, Initial residual = 0.000919982, Final residual = 3.79747e-06, No Iterations 2
DICPCG:  Solving for p, Initial residual = 0.020015, Final residual = 4.93459e-05, No Iterations 60
DICPCG:  Solving for p, Initial residual = 0.000491471, Final residual = 4.95349e-05, No Iterations 17
DICPCG:  Solving for p, Initial residual = 9.55714e-05, Final residual = 4.70935e-05, No Iterations 3
time step continuity errors : sum local = 3.40298e-09, global = 2.95654e-10, cumulative = 4.81602e-08
DICPCG:  Solving for p, Initial residual = 0.00309209, Final residual = 4.99979e-05, No Iterations 49
DICPCG:  Solving for p, Initial residual = 0.000184834, Final residual = 4.61327e-05, No Iterations 9
DICPCG:  Solving for p, Initial residual = 5.74636e-05, Final residual = 9.9523e-07, No Iterations 182
time step continuity errors : sum local = 7.1934e-11, global = 2.83629e-12, cumulative = 4.8163e-08
smoothSolver:  Solving for omega, Initial residual = 3.53196e-05, Final residual = 6.04842e-08, No Iterations 2
smoothSolver:  Solving for k, Initial residual = 0.00048398, Final residual = 4.19483e-07, No Iterations 2
bounding k, min: -0.000529888 max: 0.0457974 average: 0.00222371
ExecutionTime = 1003.84 s  ClockTime = 1015 s

Time = 1.94

Courant Number mean: 0.255875 max: 3.1728
smoothSolver:  Solving for Ux, Initial residual = 0.000228837, Final residual = 7.37551e-07, No Iterations 2
smoothSolver:  Solving for Uy, Initial residual = 0.00152227, Final residual = 5.72233e-06, No Iterations 2
smoothSolver:  Solving for Uz, Initial residual = 0.000915015, Final residual = 3.76647e-06, No Iterations 2
DICPCG:  Solving for p, Initial residual = 0.0200018, Final residual = 4.70028e-05, No Iterations 61
DICPCG:  Solving for p, Initial residual = 0.000487198, Final residual = 4.96876e-05, No Iterations 17
DICPCG:  Solving for p, Initial residual = 9.56486e-05, Final residual = 4.67441e-05, No Iterations 3
time step continuity errors : sum local = 3.37723e-09, global = 2.99214e-10, cumulative = 4.84623e-08
DICPCG:  Solving for p, Initial residual = 0.00308386, Final residual = 4.9946e-05, No Iterations 51
DICPCG:  Solving for p, Initial residual = 0.000184919, Final residual = 4.44481e-05, No Iterations 9
DICPCG:  Solving for p, Initial residual = 5.6117e-05, Final residual = 9.46034e-07, No Iterations 179
time step continuity errors : sum local = 6.83637e-11, global = 1.38395e-12, cumulative = 4.84636e-08
smoothSolver:  Solving for omega, Initial residual = 3.53023e-05, Final residual = 5.9803e-08, No Iterations 2
smoothSolver:  Solving for k, Initial residual = 0.000482531, Final residual = 4.20088e-07, No Iterations 2
bounding k, min: -0.000492548 max: 0.0457897 average: 0.00222382
ExecutionTime = 1008.39 s  ClockTime = 1019 s

Time = 1.95

Courant Number mean: 0.255875 max: 3.17091
smoothSolver:  Solving for Ux, Initial residual = 0.000228386, Final residual = 7.33423e-07, No Iterations 2
smoothSolver:  Solving for Uy, Initial residual = 0.00151677, Final residual = 5.68135e-06, No Iterations 2
smoothSolver:  Solving for Uz, Initial residual = 0.000908728, Final residual = 3.72616e-06, No Iterations 2
DICPCG:  Solving for p, Initial residual = 0.0197998, Final residual = 4.79275e-05, No Iterations 60
DICPCG:  Solving for p, Initial residual = 0.000480944, Final residual = 4.8269e-05, No Iterations 17
DICPCG:  Solving for p, Initial residual = 9.38055e-05, Final residual = 4.60345e-05, No Iterations 3
time step continuity errors : sum local = 3.32447e-09, global = 2.91989e-10, cumulative = 4.87556e-08
DICPCG:  Solving for p, Initial residual = 0.00302335, Final residual = 4.96711e-05, No Iterations 49
DICPCG:  Solving for p, Initial residual = 0.000181337, Final residual = 4.5092e-05, No Iterations 9
DICPCG:  Solving for p, Initial residual = 5.62422e-05, Final residual = 9.73527e-07, No Iterations 180
time step continuity errors : sum local = 7.03201e-11, global = 2.30596e-12, cumulative = 4.87579e-08
smoothSolver:  Solving for omega, Initial residual = 3.55312e-05, Final residual = 6.03247e-08, No Iterations 2
smoothSolver:  Solving for k, Initial residual = 0.00048391, Final residual = 4.25596e-07, No Iterations 2
bounding k, min: -0.000532203 max: 0.0457819 average: 0.00222425
ExecutionTime = 1012.99 s  ClockTime = 1024 s

Time = 1.96

Courant Number mean: 0.255875 max: 3.16904
smoothSolver:  Solving for Ux, Initial residual = 0.000227906, Final residual = 7.29297e-07, No Iterations 2
smoothSolver:  Solving for Uy, Initial residual = 0.00151107, Final residual = 5.63905e-06, No Iterations 2
smoothSolver:  Solving for Uz, Initial residual = 0.000903833, Final residual = 3.69237e-06, No Iterations 2
DICPCG:  Solving for p, Initial residual = 0.020192, Final residual = 4.87582e-05, No Iterations 60
DICPCG:  Solving for p, Initial residual = 0.000481897, Final residual = 4.84043e-05, No Iterations 18
DICPCG:  Solving for p, Initial residual = 9.49664e-05, Final residual = 4.70649e-05, No Iterations 3
time step continuity errors : sum local = 3.39729e-09, global = 2.89509e-10, cumulative = 4.90474e-08
DICPCG:  Solving for p, Initial residual = 0.00306535, Final residual = 4.94762e-05, No Iterations 50
DICPCG:  Solving for p, Initial residual = 0.000181656, Final residual = 4.48967e-05, No Iterations 9
DICPCG:  Solving for p, Initial residual = 5.60614e-05, Final residual = 9.20283e-07, No Iterations 180
time step continuity errors : sum local = 6.64384e-11, global = 2.01521e-12, cumulative = 4.90495e-08
smoothSolver:  Solving for omega, Initial residual = 3.5584e-05, Final residual = 6.15249e-08, No Iterations 2
smoothSolver:  Solving for k, Initial residual = 0.000482274, Final residual = 4.26489e-07, No Iterations 2
bounding k, min: -0.000570545 max: 0.045774 average: 0.00222478
ExecutionTime = 1017.54 s  ClockTime = 1028 s

Time = 1.97

Courant Number mean: 0.255875 max: 3.16722
smoothSolver:  Solving for Ux, Initial residual = 0.000227394, Final residual = 7.25011e-07, No Iterations 2
smoothSolver:  Solving for Uy, Initial residual = 0.00150531, Final residual = 5.59857e-06, No Iterations 2
smoothSolver:  Solving for Uz, Initial residual = 0.000898776, Final residual = 3.6594e-06, No Iterations 2
DICPCG:  Solving for p, Initial residual = 0.0201095, Final residual = 4.91385e-05, No Iterations 60
DICPCG:  Solving for p, Initial residual = 0.000479352, Final residual = 4.95059e-05, No Iterations 17
DICPCG:  Solving for p, Initial residual = 9.46399e-05, Final residual = 4.66429e-05, No Iterations 3
time step continuity errors : sum local = 3.36516e-09, global = 2.93001e-10, cumulative = 4.93425e-08
DICPCG:  Solving for p, Initial residual = 0.0030858, Final residual = 4.9808e-05, No Iterations 51
DICPCG:  Solving for p, Initial residual = 0.00018202, Final residual = 4.99262e-05, No Iterations 8
DICPCG:  Solving for p, Initial residual = 6.06694e-05, Final residual = 9.77334e-07, No Iterations 179
time step continuity errors : sum local = 7.0523e-11, global = 1.52133e-12, cumulative = 4.9344e-08
smoothSolver:  Solving for omega, Initial residual = 3.57092e-05, Final residual = 6.04126e-08, No Iterations 2
smoothSolver:  Solving for k, Initial residual = 0.000482987, Final residual = 4.21545e-07, No Iterations 2
bounding k, min: -0.000604363 max: 0.045766 average: 0.00222446
ExecutionTime = 1022.12 s  ClockTime = 1033 s

Time = 1.98

Courant Number mean: 0.255875 max: 3.16523
smoothSolver:  Solving for Ux, Initial residual = 0.000226948, Final residual = 7.20955e-07, No Iterations 2
smoothSolver:  Solving for Uy, Initial residual = 0.00149976, Final residual = 5.5585e-06, No Iterations 2
smoothSolver:  Solving for Uz, Initial residual = 0.000892546, Final residual = 3.62216e-06, No Iterations 2
DICPCG:  Solving for p, Initial residual = 0.0196696, Final residual = 4.83615e-05, No Iterations 59
DICPCG:  Solving for p, Initial residual = 0.000472003, Final residual = 4.89166e-05, No Iterations 17
DICPCG:  Solving for p, Initial residual = 9.35826e-05, Final residual = 4.60879e-05, No Iterations 3
time step continuity errors : sum local = 3.32149e-09, global = 2.79511e-10, cumulative = 4.96235e-08
DICPCG:  Solving for p, Initial residual = 0.00300386, Final residual = 4.98897e-05, No Iterations 49
DICPCG:  Solving for p, Initial residual = 0.000179622, Final residual = 4.99847e-05, No Iterations 8
DICPCG:  Solving for p, Initial residual = 6.04445e-05, Final residual = 9.74593e-07, No Iterations 180
time step continuity errors : sum local = 7.02561e-11, global = 2.24104e-12, cumulative = 4.96257e-08
smoothSolver:  Solving for omega, Initial residual = 3.52994e-05, Final residual = 5.89424e-08, No Iterations 2
smoothSolver:  Solving for k, Initial residual = 0.000477694, Final residual = 4.21859e-07, No Iterations 2
bounding k, min: -0.000534139 max: 0.0457578 average: 0.00222493
ExecutionTime = 1026.75 s  ClockTime = 1038 s

Time = 1.99

Courant Number mean: 0.255875 max: 3.1633
smoothSolver:  Solving for Ux, Initial residual = 0.000226424, Final residual = 7.16934e-07, No Iterations 2
smoothSolver:  Solving for Uy, Initial residual = 0.00149427, Final residual = 5.51695e-06, No Iterations 2
smoothSolver:  Solving for Uz, Initial residual = 0.000887081, Final residual = 3.5882e-06, No Iterations 2
DICPCG:  Solving for p, Initial residual = 0.0195919, Final residual = 4.90387e-05, No Iterations 59
DICPCG:  Solving for p, Initial residual = 0.000471485, Final residual = 4.99855e-05, No Iterations 16
DICPCG:  Solving for p, Initial residual = 9.33343e-05, Final residual = 4.59385e-05, No Iterations 3
time step continuity errors : sum local = 3.30969e-09, global = 2.79815e-10, cumulative = 4.99055e-08
DICPCG:  Solving for p, Initial residual = 0.00301891, Final residual = 4.96928e-05, No Iterations 50
DICPCG:  Solving for p, Initial residual = 0.000180694, Final residual = 4.92148e-05, No Iterations 8
DICPCG:  Solving for p, Initial residual = 5.96891e-05, Final residual = 9.8441e-07, No Iterations 179
time step continuity errors : sum local = 7.09361e-11, global = 1.92969e-12, cumulative = 4.99075e-08
smoothSolver:  Solving for omega, Initial residual = 3.48485e-05, Final residual = 5.97521e-08, No Iterations 2
smoothSolver:  Solving for k, Initial residual = 0.00047651, Final residual = 4.23107e-07, No Iterations 2
bounding k, min: -0.000493356 max: 0.0457496 average: 0.00222529
ExecutionTime = 1031.28 s  ClockTime = 1042 s

Time = 2

Courant Number mean: 0.255875 max: 3.1613
smoothSolver:  Solving for Ux, Initial residual = 0.000225928, Final residual = 7.12902e-07, No Iterations 2
smoothSolver:  Solving for Uy, Initial residual = 0.00148882, Final residual = 5.47611e-06, No Iterations 2
smoothSolver:  Solving for Uz, Initial residual = 0.000882314, Final residual = 3.55709e-06, No Iterations 2
DICPCG:  Solving for p, Initial residual = 0.0197758, Final residual = 4.96939e-05, No Iterations 59
DICPCG:  Solving for p, Initial residual = 0.000477151, Final residual = 4.8679e-05, No Iterations 17
DICPCG:  Solving for p, Initial residual = 9.34417e-05, Final residual = 4.62163e-05, No Iterations 3
time step continuity errors : sum local = 3.32871e-09, global = 2.78432e-10, cumulative = 5.01859e-08
DICPCG:  Solving for p, Initial residual = 0.00308601, Final residual = 4.86325e-05, No Iterations 52
DICPCG:  Solving for p, Initial residual = 0.000180257, Final residual = 4.87935e-05, No Iterations 8
DICPCG:  Solving for p, Initial residual = 5.95682e-05, Final residual = 9.29296e-07, No Iterations 179
time step continuity errors : sum local = 6.69451e-11, global = 1.83145e-13, cumulative = 5.01861e-08
smoothSolver:  Solving for omega, Initial residual = 3.48323e-05, Final residual = 5.9451e-08, No Iterations 2
smoothSolver:  Solving for k, Initial residual = 0.000477437, Final residual = 4.19769e-07, No Iterations 2
bounding k, min: -0.00052057 max: 0.0457412 average: 0.00222537
ExecutionTime = 1036.3 s  ClockTime = 1048 s

End

Finalising parallel run
