--------------------------------------------------------------------------
[[3825,1],1]: A high-performance Open MPI point-to-point messaging module
was unable to find any relevant network interfaces:

Module: OpenFabrics (openib)
  Host: hyd37

Another transport will be used instead, although this may result in
lower performance.
--------------------------------------------------------------------------
/*---------------------------------------------------------------------------*\
  =========                 |
  \\      /  F ield         | OpenFOAM: The Open Source CFD Toolbox
   \\    /   O peration     | Website:  https://openfoam.org
    \\  /    A nd           | Version:  6
     \\/     M anipulation  |
\*---------------------------------------------------------------------------*/
Build  : 6-eb0ce5d792a1
Exec   : pisoFoam -parallel
Date   : Jul 09 2022
Time   : 19:46:20
Host   : "hyd37"
PID    : 104680
I/O    : uncollated
Case   : /students/rtanuharja/turbSimCoMe/precursor_kOmegaUltraFine
nProcs : 3
Slaves : 
2
(
"hyd37.104681"
"hyd37.104682"
)

Pstream initialized with:
    floatTransfer      : 0
    nProcsSimpleSum    : 0
    commsType          : nonBlocking
    polling iterations : 0
fileModificationChecking : Monitoring run-time modified files using timeStampMaster (fileModificationSkew 10)
allowSystemOperations : Allowing user-supplied system call operations

// * * * * * * * * * * * * * * * * * * * * * * * * * * * * * * * * * * * * * //
Create time

Create mesh for time = 0

Reading field p

Reading field U

Reading/calculating face flux field phi

Selecting incompressible transport model Newtonian
Selecting turbulence model type RAS
Selecting RAS turbulence model kOmega
RAS
{
    RASModel        kOmega;
    turbulence      on;
    printCoeffs     on;
    betaStar        0.09;
    beta            0.072;
    gamma           0.52;
    alphaK          0.5;
    alphaOmega      0.5;
}

No MRF models present

Creating finite volume options from "constant/fvOptions"

Selecting finite volume options model type meanVelocityForce
    Source: momentumSource
    - selecting all cells
    - selected 3240 cell(s) with volume 0.45
    Initial pressure gradient = 0


Starting time loop

Time = 0.05

Courant Number mean: 0.0233891 max: 0.027277
smoothSolver:  Solving for Ux, Initial residual = 0.00287594, Final residual = 7.06288e-06, No Iterations 6
smoothSolver:  Solving for Uy, Initial residual = 0.0139179, Final residual = 6.05995e-06, No Iterations 8
smoothSolver:  Solving for Uz, Initial residual = 0.0170351, Final residual = 7.93872e-06, No Iterations 8
Pressure gradient source: uncorrected Ubar = 0.389682, pressure gradient = 0.0101126
GAMG:  Solving for p, Initial residual = 0.906133, Final residual = 0.0897655, No Iterations 86
time step continuity errors : sum local = 2.91676e-09, global = 8.36503e-21, cumulative = 8.36503e-21
Pressure gradient source: uncorrected Ubar = 0.389782, pressure gradient = 0.00694178
GAMG:  Solving for p, Initial residual = 0.0263605, Final residual = 9.97153e-07, No Iterations 864
time step continuity errors : sum local = 3.81598e-13, global = 7.05807e-21, cumulative = 1.54231e-20
Pressure gradient source: uncorrected Ubar = 0.38979, pressure gradient = 0.00668632
smoothSolver:  Solving for omega, Initial residual = 0.00684034, Final residual = 2.49767e-06, No Iterations 4
smoothSolver:  Solving for k, Initial residual = 0.0132758, Final residual = 4.47259e-06, No Iterations 6
ExecutionTime = 1.56 s  ClockTime = 2 s

Time = 0.1

Courant Number mean: 0.0233876 max: 0.0272717
smoothSolver:  Solving for Ux, Initial residual = 0.00174386, Final residual = 6.4663e-06, No Iterations 6
smoothSolver:  Solving for Uy, Initial residual = 0.360996, Final residual = 6.07422e-06, No Iterations 17
smoothSolver:  Solving for Uz, Initial residual = 0.272339, Final residual = 8.94144e-06, No Iterations 16
Pressure gradient source: uncorrected Ubar = 0.390206, pressure gradient = 0.000127986
GAMG:  Solving for p, Initial residual = 0.181118, Final residual = 0.0180053, No Iterations 80
time step continuity errors : sum local = 3.65169e-09, global = 1.26729e-19, cumulative = 1.42152e-19
Pressure gradient source: uncorrected Ubar = 0.390142, pressure gradient = 0.00216177
GAMG:  Solving for p, Initial residual = 0.428639, Final residual = 1.70767e-06, No Iterations 1000
time step continuity errors : sum local = 4.8221e-14, global = -1.92329e-20, cumulative = 1.22919e-19
Pressure gradient source: uncorrected Ubar = 0.390137, pressure gradient = 0.00232804
smoothSolver:  Solving for omega, Initial residual = 0.00193809, Final residual = 6.70379e-06, No Iterations 3
smoothSolver:  Solving for k, Initial residual = 0.00566737, Final residual = 4.22976e-06, No Iterations 5
ExecutionTime = 3.24 s  ClockTime = 4 s

Time = 0.15

Courant Number mean: 0.0233997 max: 0.0272838
smoothSolver:  Solving for Ux, Initial residual = 0.000700813, Final residual = 5.72269e-06, No Iterations 5
smoothSolver:  Solving for Uy, Initial residual = 0.285886, Final residual = 6.05017e-06, No Iterations 17
smoothSolver:  Solving for Uz, Initial residual = 0.201176, Final residual = 8.13431e-06, No Iterations 17
Pressure gradient source: uncorrected Ubar = 0.389996, pressure gradient = 0.00246556
GAMG:  Solving for p, Initial residual = 0.367714, Final residual = 0.035562, No Iterations 23
time step continuity errors : sum local = 1.48452e-09, global = -8.27293e-20, cumulative = 4.01901e-20
Pressure gradient source: uncorrected Ubar = 0.389997, pressure gradient = 0.00242513
GAMG:  Solving for p, Initial residual = 0.207826, Final residual = 9.84885e-07, No Iterations 883
time step continuity errors : sum local = 4.46671e-14, global = -2.53776e-20, cumulative = 1.48125e-20
Pressure gradient source: uncorrected Ubar = 0.389997, pressure gradient = 0.00242156
smoothSolver:  Solving for omega, Initial residual = 0.000313661, Final residual = 4.39031e-06, No Iterations 3
smoothSolver:  Solving for k, Initial residual = 0.00394505, Final residual = 3.34194e-06, No Iterations 5
ExecutionTime = 4.65 s  ClockTime = 5 s

Time = 0.2

Courant Number mean: 0.0233994 max: 0.027283
smoothSolver:  Solving for Ux, Initial residual = 0.000489446, Final residual = 8.86372e-06, No Iterations 4
smoothSolver:  Solving for Uy, Initial residual = 0.13867, Final residual = 8.5616e-06, No Iterations 15
smoothSolver:  Solving for Uz, Initial residual = 0.108645, Final residual = 5.96037e-06, No Iterations 16
Pressure gradient source: uncorrected Ubar = 0.390003, pressure gradient = 0.00232626
GAMG:  Solving for p, Initial residual = 0.19413, Final residual = 0.0188214, No Iterations 33
time step continuity errors : sum local = 7.61418e-10, global = 6.27593e-20, cumulative = 7.75718e-20
Pressure gradient source: uncorrected Ubar = 0.390002, pressure gradient = 0.00235191
[hyd37:104673] 2 more processes have sent help message help-mpi-btl-base.txt / btl:no-nics
[hyd37:104673] Set MCA parameter "orte_base_help_aggregate" to 0 to see all help / error messages
GAMG:  Solving for p, Initial residual = 0.160635, Final residual = 9.80676e-07, No Iterations 871
time step continuity errors : sum local = 2.75341e-14, global = -3.34524e-20, cumulative = 4.41194e-20
Pressure gradient source: uncorrected Ubar = 0.390002, pressure gradient = 0.00235371
smoothSolver:  Solving for omega, Initial residual = 0.000396135, Final residual = 9.72873e-06, No Iterations 2
smoothSolver:  Solving for k, Initial residual = 0.00304448, Final residual = 3.69998e-06, No Iterations 5
ExecutionTime = 6.06 s  ClockTime = 6 s

Time = 0.25

Courant Number mean: 0.0233996 max: 0.0272824
smoothSolver:  Solving for Ux, Initial residual = 0.000360718, Final residual = 6.3843e-06, No Iterations 4
smoothSolver:  Solving for Uy, Initial residual = 0.0916306, Final residual = 9.13398e-06, No Iterations 14
smoothSolver:  Solving for Uz, Initial residual = 0.063385, Final residual = 6.06122e-06, No Iterations 15
Pressure gradient source: uncorrected Ubar = 0.390001, pressure gradient = 0.00231364
GAMG:  Solving for p, Initial residual = 0.170373, Final residual = 0.0165337, No Iterations 26
time step continuity errors : sum local = 4.60809e-10, global = 1.04453e-19, cumulative = 1.48572e-19
Pressure gradient source: uncorrected Ubar = 0.390001, pressure gradient = 0.00232289
GAMG:  Solving for p, Initial residual = 0.110183, Final residual = 9.84391e-07, No Iterations 751
time step continuity errors : sum local = 2.42967e-14, global = 3.68334e-21, cumulative = 1.52255e-19
Pressure gradient source: uncorrected Ubar = 0.390001, pressure gradient = 0.0023232
smoothSolver:  Solving for omega, Initial residual = 0.000180866, Final residual = 7.4373e-06, No Iterations 2
smoothSolver:  Solving for k, Initial residual = 0.00254094, Final residual = 3.72928e-06, No Iterations 5
ExecutionTime = 7.27 s  ClockTime = 8 s

Time = 0.3

Courant Number mean: 0.0233997 max: 0.0272817
smoothSolver:  Solving for Ux, Initial residual = 0.00027969, Final residual = 5.38672e-06, No Iterations 4
smoothSolver:  Solving for Uy, Initial residual = 0.0562798, Final residual = 8.78623e-06, No Iterations 13
smoothSolver:  Solving for Uz, Initial residual = 0.0434992, Final residual = 9.85864e-06, No Iterations 13
Pressure gradient source: uncorrected Ubar = 0.39, pressure gradient = 0.00230937
GAMG:  Solving for p, Initial residual = 0.140362, Final residual = 0.0133235, No Iterations 27
time step continuity errors : sum local = 2.82819e-10, global = 1.07281e-20, cumulative = 1.62983e-19
Pressure gradient source: uncorrected Ubar = 0.39, pressure gradient = 0.00231072
GAMG:  Solving for p, Initial residual = 0.0951972, Final residual = 9.92399e-07, No Iterations 827
time step continuity errors : sum local = 1.73903e-14, global = -3.06754e-20, cumulative = 1.32308e-19
Pressure gradient source: uncorrected Ubar = 0.39, pressure gradient = 0.00231022
smoothSolver:  Solving for omega, Initial residual = 0.000134407, Final residual = 6.07813e-06, No Iterations 2
smoothSolver:  Solving for k, Initial residual = 0.0022265, Final residual = 3.4984e-06, No Iterations 5
ExecutionTime = 8.61 s  ClockTime = 9 s

Time = 0.35

Courant Number mean: 0.0233998 max: 0.0272809
smoothSolver:  Solving for Ux, Initial residual = 0.000228422, Final residual = 5.0608e-06, No Iterations 4
smoothSolver:  Solving for Uy, Initial residual = 0.0486336, Final residual = 7.29758e-06, No Iterations 13
smoothSolver:  Solving for Uz, Initial residual = 0.03427, Final residual = 6.58239e-06, No Iterations 13
Pressure gradient source: uncorrected Ubar = 0.39, pressure gradient = 0.00231186
GAMG:  Solving for p, Initial residual = 0.122832, Final residual = 0.0117805, No Iterations 24
time step continuity errors : sum local = 1.9395e-10, global = 3.02585e-20, cumulative = 1.62567e-19
Pressure gradient source: uncorrected Ubar = 0.39, pressure gradient = 0.00230845
GAMG:  Solving for p, Initial residual = 0.0821647, Final residual = 9.97789e-07, No Iterations 695
time step continuity errors : sum local = 1.41984e-14, global = 8.09469e-20, cumulative = 2.43513e-19
Pressure gradient source: uncorrected Ubar = 0.39, pressure gradient = 0.00230743
smoothSolver:  Solving for omega, Initial residual = 8.15083e-05, Final residual = 5.13877e-06, No Iterations 2
smoothSolver:  Solving for k, Initial residual = 0.00197125, Final residual = 8.89908e-06, No Iterations 4
ExecutionTime = 9.75 s  ClockTime = 10 s

Time = 0.4

Courant Number mean: 0.0233998 max: 0.0272801
smoothSolver:  Solving for Ux, Initial residual = 0.000195727, Final residual = 9.81331e-06, No Iterations 3
smoothSolver:  Solving for Uy, Initial residual = 0.0414196, Final residual = 9.15016e-06, No Iterations 12
smoothSolver:  Solving for Uz, Initial residual = 0.0284027, Final residual = 8.04817e-06, No Iterations 12
Pressure gradient source: uncorrected Ubar = 0.389999, pressure gradient = 0.00232564
GAMG:  Solving for p, Initial residual = 0.121938, Final residual = 0.0113963, No Iterations 21
time step continuity errors : sum local = 1.51203e-10, global = 8.73836e-20, cumulative = 3.30897e-19
Pressure gradient source: uncorrected Ubar = 0.39, pressure gradient = 0.00231496
GAMG:  Solving for p, Initial residual = 0.0880848, Final residual = 9.81271e-07, No Iterations 727
time step continuity errors : sum local = 1.17771e-14, global = 1.55824e-20, cumulative = 3.46479e-19
Pressure gradient source: uncorrected Ubar = 0.39, pressure gradient = 0.00231257
smoothSolver:  Solving for omega, Initial residual = 5.71539e-05, Final residual = 4.38495e-06, No Iterations 2
smoothSolver:  Solving for k, Initial residual = 0.00175155, Final residual = 7.42597e-06, No Iterations 4
ExecutionTime = 10.93 s  ClockTime = 11 s

Time = 0.45

Courant Number mean: 0.0233999 max: 0.0272794
smoothSolver:  Solving for Ux, Initial residual = 0.000176201, Final residual = 9.31111e-06, No Iterations 3
smoothSolver:  Solving for Uy, Initial residual = 0.0348143, Final residual = 7.0944e-06, No Iterations 12
smoothSolver:  Solving for Uz, Initial residual = 0.0261265, Final residual = 6.39768e-06, No Iterations 12
Pressure gradient source: uncorrected Ubar = 0.389999, pressure gradient = 0.00233073
GAMG:  Solving for p, Initial residual = 0.111316, Final residual = 0.0111007, No Iterations 15
time step continuity errors : sum local = 1.27573e-10, global = 1.18795e-19, cumulative = 4.65275e-19
Pressure gradient source: uncorrected Ubar = 0.39, pressure gradient = 0.00232013
GAMG:  Solving for p, Initial residual = 0.0837716, Final residual = 9.80303e-07, No Iterations 686
time step continuity errors : sum local = 1.00233e-14, global = 1.2456e-19, cumulative = 5.89835e-19
Pressure gradient source: uncorrected Ubar = 0.39, pressure gradient = 0.00231761
smoothSolver:  Solving for omega, Initial residual = 4.37034e-05, Final residual = 3.78541e-06, No Iterations 2
smoothSolver:  Solving for k, Initial residual = 0.00156078, Final residual = 6.02308e-06, No Iterations 4
ExecutionTime = 12.04 s  ClockTime = 12 s

Time = 0.5

Courant Number mean: 0.0233999 max: 0.0272787
smoothSolver:  Solving for Ux, Initial residual = 0.000160219, Final residual = 8.86925e-06, No Iterations 3
smoothSolver:  Solving for Uy, Initial residual = 0.0362763, Final residual = 7.25152e-06, No Iterations 12
smoothSolver:  Solving for Uz, Initial residual = 0.0251666, Final residual = 5.93446e-06, No Iterations 12
Pressure gradient source: uncorrected Ubar = 0.389999, pressure gradient = 0.0023372
GAMG:  Solving for p, Initial residual = 0.117196, Final residual = 0.0110939, No Iterations 15
time step continuity errors : sum local = 1.08378e-10, global = 1.33119e-19, cumulative = 7.22954e-19
Pressure gradient source: uncorrected Ubar = 0.39, pressure gradient = 0.00232614
GAMG:  Solving for p, Initial residual = 0.0842822, Final residual = 9.94474e-07, No Iterations 707
time step continuity errors : sum local = 9.2908e-15, global = 9.59084e-20, cumulative = 8.18863e-19
Pressure gradient source: uncorrected Ubar = 0.39, pressure gradient = 0.00232347
smoothSolver:  Solving for omega, Initial residual = 3.5062e-05, Final residual = 8.91036e-06, No Iterations 1
smoothSolver:  Solving for k, Initial residual = 0.00141067, Final residual = 4.90214e-06, No Iterations 4
ExecutionTime = 13.18 s  ClockTime = 13 s

Time = 0.55

Courant Number mean: 0.0233999 max: 0.0272781
smoothSolver:  Solving for Ux, Initial residual = 0.00014607, Final residual = 8.38466e-06, No Iterations 3
smoothSolver:  Solving for Uy, Initial residual = 0.0322412, Final residual = 6.04134e-06, No Iterations 12
smoothSolver:  Solving for Uz, Initial residual = 0.0236079, Final residual = 8.96133e-06, No Iterations 11
Pressure gradient source: uncorrected Ubar = 0.389999, pressure gradient = 0.00234308
GAMG:  Solving for p, Initial residual = 0.125946, Final residual = 0.0119009, No Iterations 11
time step continuity errors : sum local = 1.07685e-10, global = 1.56109e-19, cumulative = 9.74972e-19
Pressure gradient source: uncorrected Ubar = 0.39, pressure gradient = 0.00233194
GAMG:  Solving for p, Initial residual = 0.0830028, Final residual = 9.96463e-07, No Iterations 644
time step continuity errors : sum local = 8.64217e-15, global = 1.61994e-19, cumulative = 1.13697e-18
Pressure gradient source: uncorrected Ubar = 0.39, pressure gradient = 0.00232917
smoothSolver:  Solving for omega, Initial residual = 3.05546e-05, Final residual = 8.43569e-06, No Iterations 1
smoothSolver:  Solving for k, Initial residual = 0.00129273, Final residual = 4.32814e-06, No Iterations 4
ExecutionTime = 14.21 s  ClockTime = 15 s

Time = 0.6

Courant Number mean: 0.0234 max: 0.0272775
smoothSolver:  Solving for Ux, Initial residual = 0.000133363, Final residual = 7.91173e-06, No Iterations 3
smoothSolver:  Solving for Uy, Initial residual = 0.0339547, Final residual = 7.18893e-06, No Iterations 12
smoothSolver:  Solving for Uz, Initial residual = 0.0232956, Final residual = 9.11769e-06, No Iterations 11
Pressure gradient source: uncorrected Ubar = 0.389999, pressure gradient = 0.00234809
GAMG:  Solving for p, Initial residual = 0.12567, Final residual = 0.0115365, No Iterations 14
time step continuity errors : sum local = 9.63359e-11, global = 1.68349e-19, cumulative = 1.30532e-18
Pressure gradient source: uncorrected Ubar = 0.39, pressure gradient = 0.00233707
GAMG:  Solving for p, Initial residual = 0.0827996, Final residual = 9.86559e-07, No Iterations 688
time step continuity errors : sum local = 8.11021e-15, global = 1.98701e-20, cumulative = 1.32519e-18
Pressure gradient source: uncorrected Ubar = 0.39, pressure gradient = 0.00233423
smoothSolver:  Solving for omega, Initial residual = 2.75368e-05, Final residual = 7.91934e-06, No Iterations 1
smoothSolver:  Solving for k, Initial residual = 0.00121014, Final residual = 4.50073e-06, No Iterations 4
ExecutionTime = 15.33 s  ClockTime = 16 s

Time = 0.65

Courant Number mean: 0.0234 max: 0.027277
smoothSolver:  Solving for Ux, Initial residual = 0.000122147, Final residual = 7.45756e-06, No Iterations 3
smoothSolver:  Solving for Uy, Initial residual = 0.0323176, Final residual = 6.34535e-06, No Iterations 12
smoothSolver:  Solving for Uz, Initial residual = 0.0225749, Final residual = 8.73837e-06, No Iterations 11
Pressure gradient source: uncorrected Ubar = 0.389999, pressure gradient = 0.00235225
GAMG:  Solving for p, Initial residual = 0.118561, Final residual = 0.0117943, No Iterations 12
time step continuity errors : sum local = 9.25561e-11, global = 1.91075e-19, cumulative = 1.51626e-18
Pressure gradient source: uncorrected Ubar = 0.39, pressure gradient = 0.00234142
GAMG:  Solving for p, Initial residual = 0.0817822, Final residual = 9.86341e-07, No Iterations 533
time step continuity errors : sum local = 7.45458e-15, global = 1.79794e-19, cumulative = 1.69605e-18
Pressure gradient source: uncorrected Ubar = 0.39, pressure gradient = 0.00233854
smoothSolver:  Solving for omega, Initial residual = 2.5748e-05, Final residual = 7.45255e-06, No Iterations 1
smoothSolver:  Solving for k, Initial residual = 0.00116134, Final residual = 4.87297e-06, No Iterations 4
ExecutionTime = 16.19 s  ClockTime = 16 s

Time = 0.7

Courant Number mean: 0.0234 max: 0.0272766
smoothSolver:  Solving for Ux, Initial residual = 0.000112184, Final residual = 7.02185e-06, No Iterations 3
smoothSolver:  Solving for Uy, Initial residual = 0.0353824, Final residual = 7.88706e-06, No Iterations 12
smoothSolver:  Solving for Uz, Initial residual = 0.0219827, Final residual = 8.44683e-06, No Iterations 11
Pressure gradient source: uncorrected Ubar = 0.389999, pressure gradient = 0.00235567
GAMG:  Solving for p, Initial residual = 0.123949, Final residual = 0.0113867, No Iterations 16
time step continuity errors : sum local = 8.2998e-11, global = 9.78362e-20, cumulative = 1.79389e-18
Pressure gradient source: uncorrected Ubar = 0.39, pressure gradient = 0.00234506
GAMG:  Solving for p, Initial residual = 0.0823831, Final residual = 9.78131e-07, No Iterations 558
time step continuity errors : sum local = 7.10632e-15, global = 1.42192e-19, cumulative = 1.93608e-18
Pressure gradient source: uncorrected Ubar = 0.39, pressure gradient = 0.00234214
smoothSolver:  Solving for omega, Initial residual = 2.45191e-05, Final residual = 7.04227e-06, No Iterations 1
smoothSolver:  Solving for k, Initial residual = 0.00112827, Final residual = 5.2757e-06, No Iterations 4
ExecutionTime = 17.11 s  ClockTime = 17 s

Time = 0.75

Courant Number mean: 0.0234 max: 0.0272763
smoothSolver:  Solving for Ux, Initial residual = 0.000103348, Final residual = 6.64252e-06, No Iterations 3
smoothSolver:  Solving for Uy, Initial residual = 0.0370529, Final residual = 7.5011e-06, No Iterations 12
smoothSolver:  Solving for Uz, Initial residual = 0.0209797, Final residual = 7.95767e-06, No Iterations 11
Pressure gradient source: uncorrected Ubar = 0.389999, pressure gradient = 0.00235849
GAMG:  Solving for p, Initial residual = 0.119404, Final residual = 0.0118684, No Iterations 12
time step continuity errors : sum local = 8.39336e-11, global = 6.49515e-20, cumulative = 2.00103e-18
Pressure gradient source: uncorrected Ubar = 0.39, pressure gradient = 0.00234807
GAMG:  Solving for p, Initial residual = 0.0795939, Final residual = 9.98701e-07, No Iterations 578
time step continuity errors : sum local = 6.80022e-15, global = 6.09786e-20, cumulative = 2.06201e-18
Pressure gradient source: uncorrected Ubar = 0.39, pressure gradient = 0.00234513
smoothSolver:  Solving for omega, Initial residual = 2.35131e-05, Final residual = 6.67283e-06, No Iterations 1
smoothSolver:  Solving for k, Initial residual = 0.0011046, Final residual = 5.62749e-06, No Iterations 4
ExecutionTime = 18.05 s  ClockTime = 18 s

Time = 0.8

Courant Number mean: 0.0234 max: 0.027276
smoothSolver:  Solving for Ux, Initial residual = 9.56871e-05, Final residual = 6.33316e-06, No Iterations 3
smoothSolver:  Solving for Uy, Initial residual = 0.0412869, Final residual = 8.66849e-06, No Iterations 12
smoothSolver:  Solving for Uz, Initial residual = 0.0201021, Final residual = 7.97995e-06, No Iterations 11
Pressure gradient source: uncorrected Ubar = 0.39, pressure gradient = 0.00236083
GAMG:  Solving for p, Initial residual = 0.123296, Final residual = 0.011532, No Iterations 14
time step continuity errors : sum local = 7.4886e-11, global = 4.56027e-20, cumulative = 2.10762e-18
Pressure gradient source: uncorrected Ubar = 0.39, pressure gradient = 0.00235058
GAMG:  Solving for p, Initial residual = 0.0833637, Final residual = 9.79628e-07, No Iterations 602
time step continuity errors : sum local = 6.31617e-15, global = 8.82574e-20, cumulative = 2.19587e-18
Pressure gradient source: uncorrected Ubar = 0.39, pressure gradient = 0.00234763
smoothSolver:  Solving for omega, Initial residual = 2.25522e-05, Final residual = 6.33688e-06, No Iterations 1
smoothSolver:  Solving for k, Initial residual = 0.00108317, Final residual = 5.86871e-06, No Iterations 4
ExecutionTime = 19.01 s  ClockTime = 19 s

Time = 0.85

Courant Number mean: 0.0234001 max: 0.0272757
smoothSolver:  Solving for Ux, Initial residual = 8.9035e-05, Final residual = 6.13507e-06, No Iterations 3
smoothSolver:  Solving for Uy, Initial residual = 0.039363, Final residual = 7.92453e-06, No Iterations 12
smoothSolver:  Solving for Uz, Initial residual = 0.0193648, Final residual = 7.95735e-06, No Iterations 11
Pressure gradient source: uncorrected Ubar = 0.39, pressure gradient = 0.0023628
GAMG:  Solving for p, Initial residual = 0.122735, Final residual = 0.0118154, No Iterations 13
time step continuity errors : sum local = 7.4998e-11, global = 3.30786e-20, cumulative = 2.22895e-18
Pressure gradient source: uncorrected Ubar = 0.39, pressure gradient = 0.00235269
GAMG:  Solving for p, Initial residual = 0.0827521, Final residual = 9.98557e-07, No Iterations 588
time step continuity errors : sum local = 6.15434e-15, global = -8.4997e-20, cumulative = 2.14395e-18
Pressure gradient source: uncorrected Ubar = 0.39, pressure gradient = 0.00234972
smoothSolver:  Solving for omega, Initial residual = 2.15783e-05, Final residual = 6.02644e-06, No Iterations 1
smoothSolver:  Solving for k, Initial residual = 0.00106096, Final residual = 5.98707e-06, No Iterations 4
ExecutionTime = 19.96 s  ClockTime = 20 s

Time = 0.9

Courant Number mean: 0.0234001 max: 0.0272755
smoothSolver:  Solving for Ux, Initial residual = 8.35436e-05, Final residual = 6.01228e-06, No Iterations 3
smoothSolver:  Solving for Uy, Initial residual = 0.0409653, Final residual = 7.88974e-06, No Iterations 12
smoothSolver:  Solving for Uz, Initial residual = 0.0183469, Final residual = 8.0023e-06, No Iterations 11
Pressure gradient source: uncorrected Ubar = 0.39, pressure gradient = 0.00236446
GAMG:  Solving for p, Initial residual = 0.129664, Final residual = 0.0125216, No Iterations 14
time step continuity errors : sum local = 7.49283e-11, global = 7.02836e-20, cumulative = 2.21424e-18
Pressure gradient source: uncorrected Ubar = 0.39, pressure gradient = 0.00235448
GAMG:  Solving for p, Initial residual = 0.0808031, Final residual = 9.7788e-07, No Iterations 521
time step continuity errors : sum local = 6.10165e-15, global = 7.72471e-20, cumulative = 2.29148e-18
Pressure gradient source: uncorrected Ubar = 0.39, pressure gradient = 0.0023515
smoothSolver:  Solving for omega, Initial residual = 2.06008e-05, Final residual = 5.73146e-06, No Iterations 1
smoothSolver:  Solving for k, Initial residual = 0.00103802, Final residual = 5.99932e-06, No Iterations 4
ExecutionTime = 20.81 s  ClockTime = 21 s

Time = 0.95

Courant Number mean: 0.0234001 max: 0.0272754
smoothSolver:  Solving for Ux, Initial residual = 7.92843e-05, Final residual = 5.93735e-06, No Iterations 3
smoothSolver:  Solving for Uy, Initial residual = 0.0382346, Final residual = 7.49048e-06, No Iterations 12
smoothSolver:  Solving for Uz, Initial residual = 0.0176069, Final residual = 8.37084e-06, No Iterations 11
Pressure gradient source: uncorrected Ubar = 0.39, pressure gradient = 0.00236592
GAMG:  Solving for p, Initial residual = 0.113305, Final residual = 0.0112934, No Iterations 15
time step continuity errors : sum local = 6.92612e-11, global = 1.16205e-20, cumulative = 2.30311e-18
Pressure gradient source: uncorrected Ubar = 0.39, pressure gradient = 0.00235604
GAMG:  Solving for p, Initial residual = 0.0786873, Final residual = 9.90659e-07, No Iterations 248
time step continuity errors : sum local = 6.01955e-15, global = -2.72586e-20, cumulative = 2.27585e-18
Pressure gradient source: uncorrected Ubar = 0.39, pressure gradient = 0.00235306
smoothSolver:  Solving for omega, Initial residual = 1.96369e-05, Final residual = 5.45258e-06, No Iterations 1
smoothSolver:  Solving for k, Initial residual = 0.00101292, Final residual = 5.93292e-06, No Iterations 4
ExecutionTime = 21.26 s  ClockTime = 22 s

Time = 1

Courant Number mean: 0.0234001 max: 0.0272753
smoothSolver:  Solving for Ux, Initial residual = 7.57069e-05, Final residual = 5.87053e-06, No Iterations 3
smoothSolver:  Solving for Uy, Initial residual = 0.0344756, Final residual = 6.78645e-06, No Iterations 12
smoothSolver:  Solving for Uz, Initial residual = 0.0165087, Final residual = 7.90583e-06, No Iterations 11
Pressure gradient source: uncorrected Ubar = 0.39, pressure gradient = 0.00236721
GAMG:  Solving for p, Initial residual = 0.110352, Final residual = 0.0110338, No Iterations 16
time step continuity errors : sum local = 6.75542e-11, global = 5.13687e-20, cumulative = 2.32722e-18
Pressure gradient source: uncorrected Ubar = 0.39, pressure gradient = 0.00235741
GAMG:  Solving for p, Initial residual = 0.076833, Final residual = 9.93073e-07, No Iterations 572
time step continuity errors : sum local = 6.06296e-15, global = -1.65995e-20, cumulative = 2.31062e-18
Pressure gradient source: uncorrected Ubar = 0.39, pressure gradient = 0.00235441
smoothSolver:  Solving for omega, Initial residual = 1.87067e-05, Final residual = 5.18793e-06, No Iterations 1
smoothSolver:  Solving for k, Initial residual = 0.000986505, Final residual = 5.78901e-06, No Iterations 4
ExecutionTime = 22.18 s  ClockTime = 22 s

Time = 1.05

Courant Number mean: 0.0234001 max: 0.0272752
smoothSolver:  Solving for Ux, Initial residual = 7.26267e-05, Final residual = 5.83274e-06, No Iterations 3
smoothSolver:  Solving for Uy, Initial residual = 0.032094, Final residual = 6.36889e-06, No Iterations 12
smoothSolver:  Solving for Uz, Initial residual = 0.0158444, Final residual = 7.88565e-06, No Iterations 11
Pressure gradient source: uncorrected Ubar = 0.39, pressure gradient = 0.00236835
GAMG:  Solving for p, Initial residual = 0.108361, Final residual = 0.0104629, No Iterations 15
time step continuity errors : sum local = 6.36567e-11, global = -9.51453e-21, cumulative = 2.3011e-18
Pressure gradient source: uncorrected Ubar = 0.39, pressure gradient = 0.00235862
GAMG:  Solving for p, Initial residual = 0.0740279, Final residual = 9.95884e-07, No Iterations 578
time step continuity errors : sum local = 6.23605e-15, global = -2.95229e-20, cumulative = 2.27158e-18
Pressure gradient source: uncorrected Ubar = 0.39, pressure gradient = 0.00235562
smoothSolver:  Solving for omega, Initial residual = 1.78038e-05, Final residual = 4.93121e-06, No Iterations 1
smoothSolver:  Solving for k, Initial residual = 0.000958633, Final residual = 5.5963e-06, No Iterations 4
ExecutionTime = 23.12 s  ClockTime = 23 s

Time = 1.1

Courant Number mean: 0.0234001 max: 0.0272752
smoothSolver:  Solving for Ux, Initial residual = 6.99795e-05, Final residual = 5.7922e-06, No Iterations 3
smoothSolver:  Solving for Uy, Initial residual = 0.0265932, Final residual = 8.68749e-06, No Iterations 11
smoothSolver:  Solving for Uz, Initial residual = 0.0148132, Final residual = 7.36181e-06, No Iterations 11
Pressure gradient source: uncorrected Ubar = 0.39, pressure gradient = 0.00236938
GAMG:  Solving for p, Initial residual = 0.102628, Final residual = 0.00978075, No Iterations 18
time step continuity errors : sum local = 6.13534e-11, global = 4.54316e-20, cumulative = 2.31701e-18
Pressure gradient source: uncorrected Ubar = 0.39, pressure gradient = 0.00235971
GAMG:  Solving for p, Initial residual = 0.0705194, Final residual = 9.95378e-07, No Iterations 528
time step continuity errors : sum local = 6.45951e-15, global = 9.01391e-20, cumulative = 2.40715e-18
Pressure gradient source: uncorrected Ubar = 0.39, pressure gradient = 0.0023567
smoothSolver:  Solving for omega, Initial residual = 1.69386e-05, Final residual = 4.68513e-06, No Iterations 1
smoothSolver:  Solving for k, Initial residual = 0.000929853, Final residual = 5.35429e-06, No Iterations 4
ExecutionTime = 23.99 s  ClockTime = 24 s

Time = 1.15

Courant Number mean: 0.0234001 max: 0.0272752
smoothSolver:  Solving for Ux, Initial residual = 6.77426e-05, Final residual = 5.77491e-06, No Iterations 3
smoothSolver:  Solving for Uy, Initial residual = 0.0229034, Final residual = 8.00311e-06, No Iterations 11
smoothSolver:  Solving for Uz, Initial residual = 0.0139817, Final residual = 7.30039e-06, No Iterations 11
Pressure gradient source: uncorrected Ubar = 0.39, pressure gradient = 0.0023703
GAMG:  Solving for p, Initial residual = 0.0978582, Final residual = 0.00923919, No Iterations 15
time step continuity errors : sum local = 6.02151e-11, global = 2.67279e-20, cumulative = 2.43388e-18
Pressure gradient source: uncorrected Ubar = 0.39, pressure gradient = 0.00236069
GAMG:  Solving for p, Initial residual = 0.0696967, Final residual = 9.8068e-07, No Iterations 510
time step continuity errors : sum local = 6.51427e-15, global = 1.14401e-19, cumulative = 2.54828e-18
Pressure gradient source: uncorrected Ubar = 0.39, pressure gradient = 0.00235768
smoothSolver:  Solving for omega, Initial residual = 1.61117e-05, Final residual = 4.45e-06, No Iterations 1
smoothSolver:  Solving for k, Initial residual = 0.000900394, Final residual = 5.08861e-06, No Iterations 4
ExecutionTime = 24.82 s  ClockTime = 25 s

Time = 1.2

Courant Number mean: 0.0234001 max: 0.0272753
smoothSolver:  Solving for Ux, Initial residual = 6.59737e-05, Final residual = 5.75088e-06, No Iterations 3
smoothSolver:  Solving for Uy, Initial residual = 0.0203898, Final residual = 7.05026e-06, No Iterations 11
smoothSolver:  Solving for Uz, Initial residual = 0.0131862, Final residual = 7.03311e-06, No Iterations 11
Pressure gradient source: uncorrected Ubar = 0.39, pressure gradient = 0.00237115
GAMG:  Solving for p, Initial residual = 0.0938767, Final residual = 0.00905814, No Iterations 16
time step continuity errors : sum local = 6.09921e-11, global = 2.4524e-20, cumulative = 2.5728e-18
Pressure gradient source: uncorrected Ubar = 0.39, pressure gradient = 0.00236158
GAMG:  Solving for p, Initial residual = 0.0660454, Final residual = 9.97558e-07, No Iterations 624
time step continuity errors : sum local = 6.82195e-15, global = 6.49544e-20, cumulative = 2.63776e-18
Pressure gradient source: uncorrected Ubar = 0.39, pressure gradient = 0.00235857
smoothSolver:  Solving for omega, Initial residual = 1.53308e-05, Final residual = 4.22436e-06, No Iterations 1
smoothSolver:  Solving for k, Initial residual = 0.000872145, Final residual = 4.79497e-06, No Iterations 4
ExecutionTime = 25.83 s  ClockTime = 26 s

Time = 1.25

Courant Number mean: 0.0234001 max: 0.0272753
smoothSolver:  Solving for Ux, Initial residual = 6.47505e-05, Final residual = 5.74531e-06, No Iterations 3
smoothSolver:  Solving for Uy, Initial residual = 0.0210598, Final residual = 6.73321e-06, No Iterations 11
smoothSolver:  Solving for Uz, Initial residual = 0.0124035, Final residual = 7.28019e-06, No Iterations 11
Pressure gradient source: uncorrected Ubar = 0.39, pressure gradient = 0.0023719
GAMG:  Solving for p, Initial residual = 0.0928476, Final residual = 0.00887605, No Iterations 15
time step continuity errors : sum local = 6.13986e-11, global = 1.66974e-19, cumulative = 2.80473e-18
Pressure gradient source: uncorrected Ubar = 0.39, pressure gradient = 0.0023624
GAMG:  Solving for p, Initial residual = 0.0664516, Final residual = 9.84404e-07, No Iterations 548
time step continuity errors : sum local = 7.00705e-15, global = 2.81798e-20, cumulative = 2.83291e-18
Pressure gradient source: uncorrected Ubar = 0.39, pressure gradient = 0.00235938
smoothSolver:  Solving for omega, Initial residual = 1.45967e-05, Final residual = 4.01351e-06, No Iterations 1
smoothSolver:  Solving for k, Initial residual = 0.000844527, Final residual = 4.49616e-06, No Iterations 4
ExecutionTime = 26.72 s  ClockTime = 27 s

Time = 1.3

Courant Number mean: 0.0234001 max: 0.0272754
smoothSolver:  Solving for Ux, Initial residual = 6.37657e-05, Final residual = 5.72673e-06, No Iterations 3
smoothSolver:  Solving for Uy, Initial residual = 0.0208378, Final residual = 7.19693e-06, No Iterations 11
smoothSolver:  Solving for Uz, Initial residual = 0.0117239, Final residual = 6.88213e-06, No Iterations 11
Pressure gradient source: uncorrected Ubar = 0.39, pressure gradient = 0.0023726
GAMG:  Solving for p, Initial residual = 0.0890455, Final residual = 0.00837016, No Iterations 16
time step continuity errors : sum local = 5.97248e-11, global = 5.39982e-20, cumulative = 2.88691e-18
Pressure gradient source: uncorrected Ubar = 0.39, pressure gradient = 0.00236314
GAMG:  Solving for p, Initial residual = 0.0626103, Final residual = 9.85815e-07, No Iterations 598
time step continuity errors : sum local = 7.19864e-15, global = 1.24295e-19, cumulative = 3.0112e-18
Pressure gradient source: uncorrected Ubar = 0.39, pressure gradient = 0.00236012
smoothSolver:  Solving for omega, Initial residual = 1.39097e-05, Final residual = 3.82159e-06, No Iterations 1
smoothSolver:  Solving for k, Initial residual = 0.000817525, Final residual = 4.18508e-06, No Iterations 4
ExecutionTime = 27.68 s  ClockTime = 28 s

Time = 1.35

Courant Number mean: 0.0234001 max: 0.0272756
smoothSolver:  Solving for Ux, Initial residual = 6.29406e-05, Final residual = 5.71923e-06, No Iterations 3
smoothSolver:  Solving for Uy, Initial residual = 0.0238743, Final residual = 7.49468e-06, No Iterations 11
smoothSolver:  Solving for Uz, Initial residual = 0.0109281, Final residual = 7.05757e-06, No Iterations 11
Pressure gradient source: uncorrected Ubar = 0.39, pressure gradient = 0.00237323
GAMG:  Solving for p, Initial residual = 0.0835573, Final residual = 0.00824769, No Iterations 15
time step continuity errors : sum local = 6.02732e-11, global = 8.57593e-20, cumulative = 3.09696e-18
Pressure gradient source: uncorrected Ubar = 0.39, pressure gradient = 0.00236382
GAMG:  Solving for p, Initial residual = 0.0624801, Final residual = 9.76903e-07, No Iterations 337
time step continuity errors : sum local = 7.20202e-15, global = 1.01478e-19, cumulative = 3.19844e-18
Pressure gradient source: uncorrected Ubar = 0.39, pressure gradient = 0.00236081
smoothSolver:  Solving for omega, Initial residual = 1.32634e-05, Final residual = 3.64029e-06, No Iterations 1
smoothSolver:  Solving for k, Initial residual = 0.000791488, Final residual = 3.88104e-06, No Iterations 4
ExecutionTime = 28.26 s  ClockTime = 29 s

Time = 1.4

Courant Number mean: 0.0234001 max: 0.0272757
smoothSolver:  Solving for Ux, Initial residual = 6.21861e-05, Final residual = 5.69556e-06, No Iterations 3
smoothSolver:  Solving for Uy, Initial residual = 0.0223391, Final residual = 7.59565e-06, No Iterations 11
smoothSolver:  Solving for Uz, Initial residual = 0.0105466, Final residual = 6.79959e-06, No Iterations 11
Pressure gradient source: uncorrected Ubar = 0.39, pressure gradient = 0.00237382
GAMG:  Solving for p, Initial residual = 0.0823577, Final residual = 0.00795957, No Iterations 16
time step continuity errors : sum local = 5.89365e-11, global = 2.36956e-19, cumulative = 3.4354e-18
Pressure gradient source: uncorrected Ubar = 0.39, pressure gradient = 0.00236445
GAMG:  Solving for p, Initial residual = 0.0605688, Final residual = 9.80228e-07, No Iterations 356
time step continuity errors : sum local = 7.29178e-15, global = 5.67255e-20, cumulative = 3.49212e-18
Pressure gradient source: uncorrected Ubar = 0.39, pressure gradient = 0.00236145
smoothSolver:  Solving for omega, Initial residual = 1.26645e-05, Final residual = 3.47162e-06, No Iterations 1
smoothSolver:  Solving for k, Initial residual = 0.000766084, Final residual = 9.75252e-06, No Iterations 3
ExecutionTime = 28.86 s  ClockTime = 29 s

Time = 1.45

Courant Number mean: 0.0234001 max: 0.0272759
smoothSolver:  Solving for Ux, Initial residual = 6.15024e-05, Final residual = 5.68078e-06, No Iterations 3
smoothSolver:  Solving for Uy, Initial residual = 0.0221702, Final residual = 7.10275e-06, No Iterations 11
smoothSolver:  Solving for Uz, Initial residual = 0.00985427, Final residual = 6.78398e-06, No Iterations 11
Pressure gradient source: uncorrected Ubar = 0.39, pressure gradient = 0.00237434
GAMG:  Solving for p, Initial residual = 0.0811043, Final residual = 0.00806499, No Iterations 15
time step continuity errors : sum local = 6.02394e-11, global = -1.28106e-20, cumulative = 3.47931e-18
Pressure gradient source: uncorrected Ubar = 0.39, pressure gradient = 0.00236504
GAMG:  Solving for p, Initial residual = 0.0608761, Final residual = 9.92304e-07, No Iterations 531
time step continuity errors : sum local = 7.47847e-15, global = 1.14425e-19, cumulative = 3.59374e-18
Pressure gradient source: uncorrected Ubar = 0.39, pressure gradient = 0.00236204
smoothSolver:  Solving for omega, Initial residual = 1.21336e-05, Final residual = 3.3116e-06, No Iterations 1
smoothSolver:  Solving for k, Initial residual = 0.000741685, Final residual = 9.02361e-06, No Iterations 3
ExecutionTime = 29.73 s  ClockTime = 30 s

Time = 1.5

Courant Number mean: 0.0234002 max: 0.0272761
smoothSolver:  Solving for Ux, Initial residual = 6.08642e-05, Final residual = 5.64905e-06, No Iterations 3
smoothSolver:  Solving for Uy, Initial residual = 0.0202551, Final residual = 7.00171e-06, No Iterations 11
smoothSolver:  Solving for Uz, Initial residual = 0.00954804, Final residual = 6.8304e-06, No Iterations 11
Pressure gradient source: uncorrected Ubar = 0.39, pressure gradient = 0.00237484
GAMG:  Solving for p, Initial residual = 0.0773981, Final residual = 0.00746141, No Iterations 18
time step continuity errors : sum local = 5.66376e-11, global = 8.54908e-21, cumulative = 3.60229e-18
Pressure gradient source: uncorrected Ubar = 0.39, pressure gradient = 0.00236558
GAMG:  Solving for p, Initial residual = 0.0594301, Final residual = 9.91311e-07, No Iterations 469
time step continuity errors : sum local = 7.54184e-15, global = 7.24328e-20, cumulative = 3.67472e-18
Pressure gradient source: uncorrected Ubar = 0.39, pressure gradient = 0.0023626
smoothSolver:  Solving for omega, Initial residual = 1.16433e-05, Final residual = 3.16085e-06, No Iterations 1
smoothSolver:  Solving for k, Initial residual = 0.000718376, Final residual = 8.3134e-06, No Iterations 3
ExecutionTime = 30.51 s  ClockTime = 31 s

Time = 1.55

Courant Number mean: 0.0234002 max: 0.0272763
smoothSolver:  Solving for Ux, Initial residual = 6.02892e-05, Final residual = 5.62681e-06, No Iterations 3
smoothSolver:  Solving for Uy, Initial residual = 0.0194622, Final residual = 6.32065e-06, No Iterations 11
smoothSolver:  Solving for Uz, Initial residual = 0.0089517, Final residual = 6.65564e-06, No Iterations 11
Pressure gradient source: uncorrected Ubar = 0.39, pressure gradient = 0.00237528
GAMG:  Solving for p, Initial residual = 0.076819, Final residual = 0.00762855, No Iterations 16
time step continuity errors : sum local = 5.82349e-11, global = -3.85356e-20, cumulative = 3.63618e-18
Pressure gradient source: uncorrected Ubar = 0.39, pressure gradient = 0.0023661
GAMG:  Solving for p, Initial residual = 0.0592206, Final residual = 9.88041e-07, No Iterations 535
time step continuity errors : sum local = 7.58006e-15, global = 5.77808e-20, cumulative = 3.69396e-18
Pressure gradient source: uncorrected Ubar = 0.39, pressure gradient = 0.00236313
smoothSolver:  Solving for omega, Initial residual = 1.11904e-05, Final residual = 3.02012e-06, No Iterations 1
smoothSolver:  Solving for k, Initial residual = 0.000695956, Final residual = 7.65854e-06, No Iterations 3
ExecutionTime = 31.41 s  ClockTime = 32 s

Time = 1.6

Courant Number mean: 0.0234002 max: 0.0272765
smoothSolver:  Solving for Ux, Initial residual = 5.97144e-05, Final residual = 5.58856e-06, No Iterations 3
smoothSolver:  Solving for Uy, Initial residual = 0.0176079, Final residual = 6.12758e-06, No Iterations 11
smoothSolver:  Solving for Uz, Initial residual = 0.00868466, Final residual = 6.54403e-06, No Iterations 11
Pressure gradient source: uncorrected Ubar = 0.39, pressure gradient = 0.00237572
GAMG:  Solving for p, Initial residual = 0.0767925, Final residual = 0.00722317, No Iterations 18
time step continuity errors : sum local = 5.57965e-11, global = 2.0899e-20, cumulative = 3.71486e-18
Pressure gradient source: uncorrected Ubar = 0.39, pressure gradient = 0.00236658
GAMG:  Solving for p, Initial residual = 0.05816, Final residual = 9.8846e-07, No Iterations 507
time step continuity errors : sum local = 7.64967e-15, global = 3.05907e-20, cumulative = 3.74545e-18
Pressure gradient source: uncorrected Ubar = 0.39, pressure gradient = 0.00236362
smoothSolver:  Solving for omega, Initial residual = 1.07636e-05, Final residual = 2.88881e-06, No Iterations 1
smoothSolver:  Solving for k, Initial residual = 0.00067464, Final residual = 7.03681e-06, No Iterations 3
ExecutionTime = 32.24 s  ClockTime = 33 s

Time = 1.65

Courant Number mean: 0.0234002 max: 0.0272768
smoothSolver:  Solving for Ux, Initial residual = 5.91904e-05, Final residual = 5.56005e-06, No Iterations 3
smoothSolver:  Solving for Uy, Initial residual = 0.0168924, Final residual = 9.41834e-06, No Iterations 10
smoothSolver:  Solving for Uz, Initial residual = 0.0081678, Final residual = 6.46616e-06, No Iterations 11
Pressure gradient source: uncorrected Ubar = 0.39, pressure gradient = 0.00237612
GAMG:  Solving for p, Initial residual = 0.0738446, Final residual = 0.00729638, No Iterations 16
time step continuity errors : sum local = 5.65775e-11, global = -3.57828e-20, cumulative = 3.70967e-18
Pressure gradient source: uncorrected Ubar = 0.39, pressure gradient = 0.00236705
GAMG:  Solving for p, Initial residual = 0.0577966, Final residual = 9.93359e-07, No Iterations 533
time step continuity errors : sum local = 7.71841e-15, global = 8.38633e-20, cumulative = 3.79353e-18
Pressure gradient source: uncorrected Ubar = 0.39, pressure gradient = 0.00236411
smoothSolver:  Solving for omega, Initial residual = 1.03648e-05, Final residual = 2.77046e-06, No Iterations 1
smoothSolver:  Solving for k, Initial residual = 0.000654201, Final residual = 6.47238e-06, No Iterations 3
ExecutionTime = 33.11 s  ClockTime = 33 s

Time = 1.7

Courant Number mean: 0.0234002 max: 0.0272771
smoothSolver:  Solving for Ux, Initial residual = 5.86954e-05, Final residual = 5.51588e-06, No Iterations 3
smoothSolver:  Solving for Uy, Initial residual = 0.0152154, Final residual = 9.19114e-06, No Iterations 10
smoothSolver:  Solving for Uz, Initial residual = 0.00779912, Final residual = 6.35274e-06, No Iterations 11
Pressure gradient source: uncorrected Ubar = 0.39, pressure gradient = 0.00237651
GAMG:  Solving for p, Initial residual = 0.0716576, Final residual = 0.00694167, No Iterations 18
time step continuity errors : sum local = 5.42361e-11, global = 1.15036e-19, cumulative = 3.90857e-18
Pressure gradient source: uncorrected Ubar = 0.39, pressure gradient = 0.00236749
GAMG:  Solving for p, Initial residual = 0.0562011, Final residual = 9.83745e-07, No Iterations 507
time step continuity errors : sum local = 7.73934e-15, global = 1.0516e-19, cumulative = 4.01373e-18
Pressure gradient source: uncorrected Ubar = 0.39, pressure gradient = 0.00236456
smoothSolver:  Solving for omega, Initial residual = 9.98847e-06, Final residual = 9.98847e-06, No Iterations 0
smoothSolver:  Solving for k, Initial residual = 0.000640798, Final residual = 6.27463e-06, No Iterations 3
ExecutionTime = 33.94 s  ClockTime = 34 s

Time = 1.75

Courant Number mean: 0.0234002 max: 0.0272773
smoothSolver:  Solving for Ux, Initial residual = 5.79691e-05, Final residual = 5.41499e-06, No Iterations 3
smoothSolver:  Solving for Uy, Initial residual = 0.014623, Final residual = 8.41237e-06, No Iterations 10
smoothSolver:  Solving for Uz, Initial residual = 0.0073531, Final residual = 6.36505e-06, No Iterations 11
Pressure gradient source: uncorrected Ubar = 0.39, pressure gradient = 0.00237658
GAMG:  Solving for p, Initial residual = 0.0671851, Final residual = 0.00660529, No Iterations 17
time step continuity errors : sum local = 5.19854e-11, global = 9.15922e-20, cumulative = 4.10532e-18
Pressure gradient source: uncorrected Ubar = 0.39, pressure gradient = 0.00236779
GAMG:  Solving for p, Initial residual = 0.0542412, Final residual = 9.7912e-07, No Iterations 507
time step continuity errors : sum local = 7.74432e-15, global = 1.22485e-19, cumulative = 4.22781e-18
Pressure gradient source: uncorrected Ubar = 0.39, pressure gradient = 0.00236492
smoothSolver:  Solving for omega, Initial residual = 1.28765e-05, Final residual = 3.02397e-06, No Iterations 1
smoothSolver:  Solving for k, Initial residual = 0.000623267, Final residual = 6.00387e-06, No Iterations 3
ExecutionTime = 34.77 s  ClockTime = 35 s

Time = 1.8

Courant Number mean: 0.0234002 max: 0.0272776
smoothSolver:  Solving for Ux, Initial residual = 5.74634e-05, Final residual = 5.37169e-06, No Iterations 3
smoothSolver:  Solving for Uy, Initial residual = 0.0132676, Final residual = 8.27768e-06, No Iterations 10
smoothSolver:  Solving for Uz, Initial residual = 0.0069905, Final residual = 6.11764e-06, No Iterations 11
Pressure gradient source: uncorrected Ubar = 0.39, pressure gradient = 0.00237705
GAMG:  Solving for p, Initial residual = 0.0686642, Final residual = 0.00644361, No Iterations 18
time step continuity errors : sum local = 5.12661e-11, global = 1.44149e-19, cumulative = 4.37196e-18
Pressure gradient source: uncorrected Ubar = 0.39, pressure gradient = 0.00236824
GAMG:  Solving for p, Initial residual = 0.0545353, Final residual = 9.81745e-07, No Iterations 427
time step continuity errors : sum local = 7.83588e-15, global = 2.12955e-19, cumulative = 4.58491e-18
Pressure gradient source: uncorrected Ubar = 0.39, pressure gradient = 0.00236538
smoothSolver:  Solving for omega, Initial residual = 9.64065e-06, Final residual = 9.64065e-06, No Iterations 0
smoothSolver:  Solving for k, Initial residual = 0.000606989, Final residual = 5.76872e-06, No Iterations 3
ExecutionTime = 35.48 s  ClockTime = 36 s

Time = 1.85

Courant Number mean: 0.0234002 max: 0.0272779
smoothSolver:  Solving for Ux, Initial residual = 5.67335e-05, Final residual = 9.8327e-06, No Iterations 2
smoothSolver:  Solving for Uy, Initial residual = 0.0125021, Final residual = 7.36665e-06, No Iterations 10
smoothSolver:  Solving for Uz, Initial residual = 0.00664734, Final residual = 6.13953e-06, No Iterations 11
Pressure gradient source: uncorrected Ubar = 0.389999, pressure gradient = 0.00238907
GAMG:  Solving for p, Initial residual = 0.0921391, Final residual = 0.00902473, No Iterations 18
time step continuity errors : sum local = 7.36137e-11, global = 1.54351e-19, cumulative = 4.73926e-18
Pressure gradient source: uncorrected Ubar = 0.39, pressure gradient = 0.00237536
GAMG:  Solving for p, Initial residual = 0.0819533, Final residual = 9.88167e-07, No Iterations 544
time step continuity errors : sum local = 8.00924e-15, global = 1.23638e-19, cumulative = 4.8629e-18
Pressure gradient source: uncorrected Ubar = 0.39, pressure gradient = 0.00237076
smoothSolver:  Solving for omega, Initial residual = 1.20042e-05, Final residual = 2.95026e-06, No Iterations 1
smoothSolver:  Solving for k, Initial residual = 0.000588431, Final residual = 5.43412e-06, No Iterations 3
ExecutionTime = 36.37 s  ClockTime = 37 s

Time = 1.9

Courant Number mean: 0.0234002 max: 0.0272782
smoothSolver:  Solving for Ux, Initial residual = 5.6147e-05, Final residual = 9.79466e-06, No Iterations 2
smoothSolver:  Solving for Uy, Initial residual = 0.0166716, Final residual = 6.67552e-06, No Iterations 11
smoothSolver:  Solving for Uz, Initial residual = 0.00733851, Final residual = 7.80896e-06, No Iterations 11
Pressure gradient source: uncorrected Ubar = 0.389999, pressure gradient = 0.00238728
GAMG:  Solving for p, Initial residual = 0.0978751, Final residual = 0.00922865, No Iterations 9
time step continuity errors : sum local = 7.64733e-11, global = 2.39345e-19, cumulative = 5.10224e-18
Pressure gradient source: uncorrected Ubar = 0.39, pressure gradient = 0.00237554
GAMG:  Solving for p, Initial residual = 0.0830883, Final residual = 9.93448e-07, No Iterations 679
time step continuity errors : sum local = 8.18585e-15, global = 1.13347e-19, cumulative = 5.21559e-18
Pressure gradient source: uncorrected Ubar = 0.39, pressure gradient = 0.00237107
smoothSolver:  Solving for omega, Initial residual = 9.20697e-06, Final residual = 9.20697e-06, No Iterations 0
smoothSolver:  Solving for k, Initial residual = 0.000571359, Final residual = 5.12192e-06, No Iterations 3
ExecutionTime = 37.45 s  ClockTime = 38 s

Time = 1.95

Courant Number mean: 0.0234002 max: 0.0272786
smoothSolver:  Solving for Ux, Initial residual = 5.54348e-05, Final residual = 9.63675e-06, No Iterations 2
smoothSolver:  Solving for Uy, Initial residual = 0.0146812, Final residual = 9.62443e-06, No Iterations 10
smoothSolver:  Solving for Uz, Initial residual = 0.00736432, Final residual = 7.21855e-06, No Iterations 11
Pressure gradient source: uncorrected Ubar = 0.389999, pressure gradient = 0.00238721
GAMG:  Solving for p, Initial residual = 0.0903806, Final residual = 0.00844097, No Iterations 12
time step continuity errors : sum local = 7.09817e-11, global = 3.86218e-20, cumulative = 5.25421e-18
Pressure gradient source: uncorrected Ubar = 0.39, pressure gradient = 0.0023757
GAMG:  Solving for p, Initial residual = 0.0785183, Final residual = 9.96966e-07, No Iterations 577
time step continuity errors : sum local = 8.37191e-15, global = 1.00947e-19, cumulative = 5.35516e-18
Pressure gradient source: uncorrected Ubar = 0.39, pressure gradient = 0.0023713
smoothSolver:  Solving for omega, Initial residual = 1.14365e-05, Final residual = 2.83523e-06, No Iterations 1
smoothSolver:  Solving for k, Initial residual = 0.000554778, Final residual = 4.85461e-06, No Iterations 3
ExecutionTime = 38.38 s  ClockTime = 39 s

Time = 2

Courant Number mean: 0.0234002 max: 0.0272789
smoothSolver:  Solving for Ux, Initial residual = 5.49802e-05, Final residual = 9.5678e-06, No Iterations 2
smoothSolver:  Solving for Uy, Initial residual = 0.0140133, Final residual = 6.04369e-06, No Iterations 11
smoothSolver:  Solving for Uz, Initial residual = 0.00719435, Final residual = 7.9427e-06, No Iterations 11
Pressure gradient source: uncorrected Ubar = 0.389999, pressure gradient = 0.00238767
GAMG:  Solving for p, Initial residual = 0.0947322, Final residual = 0.00925562, No Iterations 12
time step continuity errors : sum local = 7.87147e-11, global = 2.26508e-20, cumulative = 5.37781e-18
Pressure gradient source: uncorrected Ubar = 0.39, pressure gradient = 0.00237611
GAMG:  Solving for p, Initial residual = 0.0811327, Final residual = 9.90176e-07, No Iterations 640
time step continuity errors : sum local = 8.36207e-15, global = -7.33103e-20, cumulative = 5.3045e-18
Pressure gradient source: uncorrected Ubar = 0.39, pressure gradient = 0.00237172
smoothSolver:  Solving for omega, Initial residual = 8.93996e-06, Final residual = 8.93996e-06, No Iterations 0
smoothSolver:  Solving for k, Initial residual = 0.000540434, Final residual = 4.63211e-06, No Iterations 3
ExecutionTime = 39.4 s  ClockTime = 40 s

Time = 2.05

Courant Number mean: 0.0234002 max: 0.0272793
smoothSolver:  Solving for Ux, Initial residual = 5.42544e-05, Final residual = 9.40569e-06, No Iterations 2
smoothSolver:  Solving for Uy, Initial residual = 0.0134054, Final residual = 9.15113e-06, No Iterations 10
smoothSolver:  Solving for Uz, Initial residual = 0.0071659, Final residual = 8.2087e-06, No Iterations 11
Pressure gradient source: uncorrected Ubar = 0.39, pressure gradient = 0.00238751
GAMG:  Solving for p, Initial residual = 0.0903738, Final residual = 0.00884127, No Iterations 12
time step continuity errors : sum local = 7.61473e-11, global = 3.25492e-20, cumulative = 5.33705e-18
Pressure gradient source: uncorrected Ubar = 0.39, pressure gradient = 0.00237622
GAMG:  Solving for p, Initial residual = 0.078634, Final residual = 9.81708e-07, No Iterations 583
time step continuity errors : sum local = 8.39656e-15, global = -1.19168e-21, cumulative = 5.33586e-18
Pressure gradient source: uncorrected Ubar = 0.39, pressure gradient = 0.00237191
smoothSolver:  Solving for omega, Initial residual = 1.10694e-05, Final residual = 2.76009e-06, No Iterations 1
smoothSolver:  Solving for k, Initial residual = 0.000526548, Final residual = 4.44284e-06, No Iterations 3
ExecutionTime = 40.33 s  ClockTime = 41 s

Time = 2.1

Courant Number mean: 0.0234002 max: 0.0272797
smoothSolver:  Solving for Ux, Initial residual = 5.37998e-05, Final residual = 9.33368e-06, No Iterations 2
smoothSolver:  Solving for Uy, Initial residual = 0.0122774, Final residual = 9.88566e-06, No Iterations 10
smoothSolver:  Solving for Uz, Initial residual = 0.00710721, Final residual = 8.55599e-06, No Iterations 11
Pressure gradient source: uncorrected Ubar = 0.389999, pressure gradient = 0.00238794
GAMG:  Solving for p, Initial residual = 0.0945902, Final residual = 0.0093762, No Iterations 13
time step continuity errors : sum local = 8.15931e-11, global = 7.58039e-20, cumulative = 5.41166e-18
Pressure gradient source: uncorrected Ubar = 0.39, pressure gradient = 0.0023766
GAMG:  Solving for p, Initial residual = 0.079842, Final residual = 9.93994e-07, No Iterations 621
time step continuity errors : sum local = 8.58911e-15, global = 5.68167e-20, cumulative = 5.46848e-18
Pressure gradient source: uncorrected Ubar = 0.39, pressure gradient = 0.0023723
smoothSolver:  Solving for omega, Initial residual = 8.73513e-06, Final residual = 8.73513e-06, No Iterations 0
smoothSolver:  Solving for k, Initial residual = 0.000514934, Final residual = 4.3022e-06, No Iterations 3
ExecutionTime = 41.33 s  ClockTime = 42 s

Time = 2.15

Courant Number mean: 0.0234002 max: 0.02728
smoothSolver:  Solving for Ux, Initial residual = 5.30653e-05, Final residual = 9.16836e-06, No Iterations 2
smoothSolver:  Solving for Uy, Initial residual = 0.0119063, Final residual = 8.75358e-06, No Iterations 10
smoothSolver:  Solving for Uz, Initial residual = 0.00698169, Final residual = 8.77205e-06, No Iterations 11
Pressure gradient source: uncorrected Ubar = 0.39, pressure gradient = 0.00238773
GAMG:  Solving for p, Initial residual = 0.0915733, Final residual = 0.00859301, No Iterations 14
time step continuity errors : sum local = 7.54502e-11, global = 1.06928e-19, cumulative = 5.57541e-18
Pressure gradient source: uncorrected Ubar = 0.39, pressure gradient = 0.00237667
GAMG:  Solving for p, Initial residual = 0.0782195, Final residual = 9.92723e-07, No Iterations 583
time step continuity errors : sum local = 8.64551e-15, global = 1.17643e-19, cumulative = 5.69305e-18
Pressure gradient source: uncorrected Ubar = 0.39, pressure gradient = 0.00237245
smoothSolver:  Solving for omega, Initial residual = 1.07831e-05, Final residual = 2.69554e-06, No Iterations 1
smoothSolver:  Solving for k, Initial residual = 0.000503672, Final residual = 4.19278e-06, No Iterations 3
ExecutionTime = 42.27 s  ClockTime = 43 s

Time = 2.2

Courant Number mean: 0.0234002 max: 0.0272804
smoothSolver:  Solving for Ux, Initial residual = 5.26263e-05, Final residual = 9.10265e-06, No Iterations 2
smoothSolver:  Solving for Uy, Initial residual = 0.0104897, Final residual = 9.00641e-06, No Iterations 10
smoothSolver:  Solving for Uz, Initial residual = 0.00698057, Final residual = 8.81945e-06, No Iterations 11
Pressure gradient source: uncorrected Ubar = 0.39, pressure gradient = 0.00238811
GAMG:  Solving for p, Initial residual = 0.0940772, Final residual = 0.0091543, No Iterations 14
time step continuity errors : sum local = 8.07587e-11, global = 7.37288e-20, cumulative = 5.76678e-18
Pressure gradient source: uncorrected Ubar = 0.39, pressure gradient = 0.00237702
GAMG:  Solving for p, Initial residual = 0.0779776, Final residual = 9.8459e-07, No Iterations 610
time step continuity errors : sum local = 8.6122e-15, global = 1.70425e-19, cumulative = 5.9372e-18
Pressure gradient source: uncorrected Ubar = 0.39, pressure gradient = 0.00237281
smoothSolver:  Solving for omega, Initial residual = 8.5459e-06, Final residual = 8.5459e-06, No Iterations 0
smoothSolver:  Solving for k, Initial residual = 0.000495817, Final residual = 4.15102e-06, No Iterations 3
ExecutionTime = 43.24 s  ClockTime = 44 s

Time = 2.25

Courant Number mean: 0.0234002 max: 0.0272808
smoothSolver:  Solving for Ux, Initial residual = 5.18854e-05, Final residual = 8.91633e-06, No Iterations 2
smoothSolver:  Solving for Uy, Initial residual = 0.0103789, Final residual = 7.90903e-06, No Iterations 10
smoothSolver:  Solving for Uz, Initial residual = 0.00681078, Final residual = 8.92199e-06, No Iterations 11
Pressure gradient source: uncorrected Ubar = 0.39, pressure gradient = 0.00238793
GAMG:  Solving for p, Initial residual = 0.0891013, Final residual = 0.00866189, No Iterations 14
time step continuity errors : sum local = 7.70445e-11, global = 1.14388e-19, cumulative = 6.05159e-18
Pressure gradient source: uncorrected Ubar = 0.39, pressure gradient = 0.00237707
GAMG:  Solving for p, Initial residual = 0.0759551, Final residual = 9.94803e-07, No Iterations 591
time step continuity errors : sum local = 8.77122e-15, global = 1.62414e-20, cumulative = 6.06783e-18
Pressure gradient source: uncorrected Ubar = 0.39, pressure gradient = 0.00237294
smoothSolver:  Solving for omega, Initial residual = 1.0521e-05, Final residual = 2.63452e-06, No Iterations 1
smoothSolver:  Solving for k, Initial residual = 0.000488377, Final residual = 4.11207e-06, No Iterations 3
ExecutionTime = 44.19 s  ClockTime = 45 s

Time = 2.3

Courant Number mean: 0.0234002 max: 0.0272812
smoothSolver:  Solving for Ux, Initial residual = 5.14864e-05, Final residual = 8.86063e-06, No Iterations 2
smoothSolver:  Solving for Uy, Initial residual = 0.00929133, Final residual = 8.44914e-06, No Iterations 10
smoothSolver:  Solving for Uz, Initial residual = 0.00676181, Final residual = 8.875e-06, No Iterations 11
Pressure gradient source: uncorrected Ubar = 0.39, pressure gradient = 0.00238822
GAMG:  Solving for p, Initial residual = 0.0915687, Final residual = 0.00888633, No Iterations 15
time step continuity errors : sum local = 7.94366e-11, global = 1.08913e-19, cumulative = 6.17675e-18
Pressure gradient source: uncorrected Ubar = 0.39, pressure gradient = 0.00237737
GAMG:  Solving for p, Initial residual = 0.0762357, Final residual = 9.78229e-07, No Iterations 587
time step continuity errors : sum local = 8.66541e-15, global = -9.23284e-21, cumulative = 6.16751e-18
Pressure gradient source: uncorrected Ubar = 0.39, pressure gradient = 0.00237325
smoothSolver:  Solving for omega, Initial residual = 8.36012e-06, Final residual = 8.36012e-06, No Iterations 0
smoothSolver:  Solving for k, Initial residual = 0.0004832, Final residual = 4.13517e-06, No Iterations 3
ExecutionTime = 45.14 s  ClockTime = 45 s

Time = 2.35

Courant Number mean: 0.0234002 max: 0.0272816
smoothSolver:  Solving for Ux, Initial residual = 5.07715e-05, Final residual = 8.68161e-06, No Iterations 2
smoothSolver:  Solving for Uy, Initial residual = 0.00927663, Final residual = 7.36158e-06, No Iterations 10
smoothSolver:  Solving for Uz, Initial residual = 0.0064919, Final residual = 8.9635e-06, No Iterations 11
Pressure gradient source: uncorrected Ubar = 0.39, pressure gradient = 0.00238801
GAMG:  Solving for p, Initial residual = 0.0865453, Final residual = 0.00826261, No Iterations 14
time step continuity errors : sum local = 7.413e-11, global = -7.984e-20, cumulative = 6.08767e-18
Pressure gradient source: uncorrected Ubar = 0.39, pressure gradient = 0.00237741
GAMG:  Solving for p, Initial residual = 0.0742329, Final residual = 9.92509e-07, No Iterations 585
time step continuity errors : sum local = 8.83769e-15, global = -4.5166e-20, cumulative = 6.04251e-18
Pressure gradient source: uncorrected Ubar = 0.39, pressure gradient = 0.00237337
smoothSolver:  Solving for omega, Initial residual = 1.0275e-05, Final residual = 2.57354e-06, No Iterations 1
smoothSolver:  Solving for k, Initial residual = 0.00047965, Final residual = 4.16346e-06, No Iterations 3
ExecutionTime = 46.08 s  ClockTime = 46 s

Time = 2.4

Courant Number mean: 0.0234002 max: 0.027282
smoothSolver:  Solving for Ux, Initial residual = 5.03781e-05, Final residual = 8.60589e-06, No Iterations 2
smoothSolver:  Solving for Uy, Initial residual = 0.00826022, Final residual = 7.71253e-06, No Iterations 10
smoothSolver:  Solving for Uz, Initial residual = 0.00650263, Final residual = 8.76312e-06, No Iterations 11
Pressure gradient source: uncorrected Ubar = 0.39, pressure gradient = 0.00238833
GAMG:  Solving for p, Initial residual = 0.0878137, Final residual = 0.00865269, No Iterations 15
time step continuity errors : sum local = 7.80883e-11, global = 1.50393e-20, cumulative = 6.05755e-18
Pressure gradient source: uncorrected Ubar = 0.39, pressure gradient = 0.0023777
GAMG:  Solving for p, Initial residual = 0.0738936, Final residual = 9.92458e-07, No Iterations 565
time step continuity errors : sum local = 8.87488e-15, global = -1.91823e-20, cumulative = 6.03836e-18
Pressure gradient source: uncorrected Ubar = 0.39, pressure gradient = 0.00237367
smoothSolver:  Solving for omega, Initial residual = 8.17793e-06, Final residual = 8.17793e-06, No Iterations 0
smoothSolver:  Solving for k, Initial residual = 0.000477498, Final residual = 4.21564e-06, No Iterations 3
ExecutionTime = 46.99 s  ClockTime = 47 s

Time = 2.45

Courant Number mean: 0.0234002 max: 0.0272824
smoothSolver:  Solving for Ux, Initial residual = 4.96871e-05, Final residual = 8.43804e-06, No Iterations 2
smoothSolver:  Solving for Uy, Initial residual = 0.0083593, Final residual = 6.85844e-06, No Iterations 10
smoothSolver:  Solving for Uz, Initial residual = 0.00628387, Final residual = 8.90942e-06, No Iterations 11
Pressure gradient source: uncorrected Ubar = 0.39, pressure gradient = 0.00238806
GAMG:  Solving for p, Initial residual = 0.085204, Final residual = 0.00826223, No Iterations 14
time step continuity errors : sum local = 7.4395e-11, global = 7.24528e-20, cumulative = 6.11082e-18
Pressure gradient source: uncorrected Ubar = 0.39, pressure gradient = 0.0023777
GAMG:  Solving for p, Initial residual = 0.0723909, Final residual = 9.78905e-07, No Iterations 581
time step continuity errors : sum local = 8.75392e-15, global = 8.37063e-20, cumulative = 6.19452e-18
Pressure gradient source: uncorrected Ubar = 0.39, pressure gradient = 0.00237376
smoothSolver:  Solving for omega, Initial residual = 1.00304e-05, Final residual = 2.51121e-06, No Iterations 1
smoothSolver:  Solving for k, Initial residual = 0.000475329, Final residual = 4.26403e-06, No Iterations 3
ExecutionTime = 47.92 s  ClockTime = 48 s

Time = 2.5

Courant Number mean: 0.0234002 max: 0.0272828
smoothSolver:  Solving for Ux, Initial residual = 4.92812e-05, Final residual = 8.37054e-06, No Iterations 2
smoothSolver:  Solving for Uy, Initial residual = 0.00733516, Final residual = 7.01415e-06, No Iterations 10
smoothSolver:  Solving for Uz, Initial residual = 0.00629456, Final residual = 8.60769e-06, No Iterations 11
Pressure gradient source: uncorrected Ubar = 0.39, pressure gradient = 0.00238836
GAMG:  Solving for p, Initial residual = 0.0855409, Final residual = 0.00841881, No Iterations 15
time step continuity errors : sum local = 7.60336e-11, global = 9.30748e-20, cumulative = 6.2876e-18
Pressure gradient source: uncorrected Ubar = 0.39, pressure gradient = 0.00237798
GAMG:  Solving for p, Initial residual = 0.0718732, Final residual = 9.7816e-07, No Iterations 555
time step continuity errors : sum local = 8.74062e-15, global = 5.87034e-20, cumulative = 6.3463e-18
Pressure gradient source: uncorrected Ubar = 0.39, pressure gradient = 0.00237406
smoothSolver:  Solving for omega, Initial residual = 7.99716e-06, Final residual = 7.99716e-06, No Iterations 0
smoothSolver:  Solving for k, Initial residual = 0.000475507, Final residual = 4.3445e-06, No Iterations 3
ExecutionTime = 48.81 s  ClockTime = 49 s

Time = 2.55

Courant Number mean: 0.0234002 max: 0.0272832
smoothSolver:  Solving for Ux, Initial residual = 4.85711e-05, Final residual = 8.1841e-06, No Iterations 2
smoothSolver:  Solving for Uy, Initial residual = 0.00765482, Final residual = 6.27349e-06, No Iterations 10
smoothSolver:  Solving for Uz, Initial residual = 0.00610611, Final residual = 8.81615e-06, No Iterations 11
Pressure gradient source: uncorrected Ubar = 0.39, pressure gradient = 0.00238812
GAMG:  Solving for p, Initial residual = 0.0821748, Final residual = 0.00820203, No Iterations 14
time step continuity errors : sum local = 7.40429e-11, global = 1.16965e-19, cumulative = 6.46327e-18
Pressure gradient source: uncorrected Ubar = 0.39, pressure gradient = 0.00237798
GAMG:  Solving for p, Initial residual = 0.0707566, Final residual = 9.77926e-07, No Iterations 571
time step continuity errors : sum local = 8.77375e-15, global = -4.2518e-20, cumulative = 6.42075e-18
Pressure gradient source: uncorrected Ubar = 0.39, pressure gradient = 0.00237414
smoothSolver:  Solving for omega, Initial residual = 9.78484e-06, Final residual = 9.78484e-06, No Iterations 0
smoothSolver:  Solving for k, Initial residual = 0.000485852, Final residual = 4.79987e-06, No Iterations 3
ExecutionTime = 49.73 s  ClockTime = 50 s

Time = 2.6

Courant Number mean: 0.0234002 max: 0.0272836
smoothSolver:  Solving for Ux, Initial residual = 4.78667e-05, Final residual = 8.00921e-06, No Iterations 2
smoothSolver:  Solving for Uy, Initial residual = 0.00657479, Final residual = 6.3862e-06, No Iterations 10
smoothSolver:  Solving for Uz, Initial residual = 0.00616216, Final residual = 8.54745e-06, No Iterations 11
Pressure gradient source: uncorrected Ubar = 0.39, pressure gradient = 0.00238792
GAMG:  Solving for p, Initial residual = 0.0800283, Final residual = 0.00780487, No Iterations 16
time step continuity errors : sum local = 7.06471e-11, global = -3.59762e-20, cumulative = 6.38477e-18
Pressure gradient source: uncorrected Ubar = 0.39, pressure gradient = 0.00237799
GAMG:  Solving for p, Initial residual = 0.0682631, Final residual = 9.94366e-07, No Iterations 540
time step continuity errors : sum local = 8.90726e-15, global = -5.21071e-20, cumulative = 6.33266e-18
Pressure gradient source: uncorrected Ubar = 0.39, pressure gradient = 0.00237423
smoothSolver:  Solving for omega, Initial residual = 1.1504e-05, Final residual = 2.65555e-06, No Iterations 1
smoothSolver:  Solving for k, Initial residual = 0.000482519, Final residual = 4.7864e-06, No Iterations 3
ExecutionTime = 50.6 s  ClockTime = 51 s

Time = 2.65

Courant Number mean: 0.0234002 max: 0.027284
smoothSolver:  Solving for Ux, Initial residual = 4.74561e-05, Final residual = 7.94828e-06, No Iterations 2
smoothSolver:  Solving for Uy, Initial residual = 0.00710788, Final residual = 9.63144e-06, No Iterations 9
smoothSolver:  Solving for Uz, Initial residual = 0.00605855, Final residual = 8.51009e-06, No Iterations 11
Pressure gradient source: uncorrected Ubar = 0.39, pressure gradient = 0.00238824
GAMG:  Solving for p, Initial residual = 0.0829294, Final residual = 0.00823283, No Iterations 12
time step continuity errors : sum local = 7.43448e-11, global = 6.38637e-20, cumulative = 6.39653e-18
Pressure gradient source: uncorrected Ubar = 0.39, pressure gradient = 0.00237828
GAMG:  Solving for p, Initial residual = 0.0697106, Final residual = 9.88372e-07, No Iterations 541
time step continuity errors : sum local = 8.87252e-15, global = 2.51883e-20, cumulative = 6.42172e-18
Pressure gradient source: uncorrected Ubar = 0.39, pressure gradient = 0.00237453
smoothSolver:  Solving for omega, Initial residual = 7.83761e-06, Final residual = 7.83761e-06, No Iterations 0
smoothSolver:  Solving for k, Initial residual = 0.000480964, Final residual = 4.8066e-06, No Iterations 3
ExecutionTime = 51.48 s  ClockTime = 52 s

Time = 2.7

Courant Number mean: 0.0234002 max: 0.0272844
smoothSolver:  Solving for Ux, Initial residual = 4.67406e-05, Final residual = 7.76499e-06, No Iterations 2
smoothSolver:  Solving for Uy, Initial residual = 0.00628578, Final residual = 6.26877e-06, No Iterations 10
smoothSolver:  Solving for Uz, Initial residual = 0.00617613, Final residual = 8.66132e-06, No Iterations 11
Pressure gradient source: uncorrected Ubar = 0.39, pressure gradient = 0.002388
GAMG:  Solving for p, Initial residual = 0.0801252, Final residual = 0.00781884, No Iterations 16
time step continuity errors : sum local = 7.11307e-11, global = -3.55486e-21, cumulative = 6.41816e-18
Pressure gradient source: uncorrected Ubar = 0.39, pressure gradient = 0.00237828
GAMG:  Solving for p, Initial residual = 0.067275, Final residual = 9.77866e-07, No Iterations 526
time step continuity errors : sum local = 8.78912e-15, global = -1.14164e-20, cumulative = 6.40675e-18
Pressure gradient source: uncorrected Ubar = 0.39, pressure gradient = 0.00237461
smoothSolver:  Solving for omega, Initial residual = 9.50388e-06, Final residual = 9.50388e-06, No Iterations 0
smoothSolver:  Solving for k, Initial residual = 0.000490771, Final residual = 5.20947e-06, No Iterations 3
ExecutionTime = 52.33 s  ClockTime = 53 s

Time = 2.75

Courant Number mean: 0.0234002 max: 0.0272848
smoothSolver:  Solving for Ux, Initial residual = 4.60347e-05, Final residual = 7.59362e-06, No Iterations 2
smoothSolver:  Solving for Uy, Initial residual = 0.00666246, Final residual = 9.33121e-06, No Iterations 9
smoothSolver:  Solving for Uz, Initial residual = 0.00601914, Final residual = 8.65905e-06, No Iterations 11
Pressure gradient source: uncorrected Ubar = 0.39, pressure gradient = 0.00238779
GAMG:  Solving for p, Initial residual = 0.0782762, Final residual = 0.00745885, No Iterations 14
time step continuity errors : sum local = 6.76006e-11, global = -3.95652e-20, cumulative = 6.36718e-18
Pressure gradient source: uncorrected Ubar = 0.39, pressure gradient = 0.00237828
GAMG:  Solving for p, Initial residual = 0.0664128, Final residual = 9.95228e-07, No Iterations 539
time step continuity errors : sum local = 8.94622e-15, global = 1.2402e-20, cumulative = 6.37958e-18
Pressure gradient source: uncorrected Ubar = 0.39, pressure gradient = 0.0023747
smoothSolver:  Solving for omega, Initial residual = 1.11157e-05, Final residual = 2.63647e-06, No Iterations 1
smoothSolver:  Solving for k, Initial residual = 0.000486969, Final residual = 5.15422e-06, No Iterations 3
ExecutionTime = 53.19 s  ClockTime = 54 s

Time = 2.8

Courant Number mean: 0.0234002 max: 0.0272852
smoothSolver:  Solving for Ux, Initial residual = 4.56279e-05, Final residual = 7.5373e-06, No Iterations 2
smoothSolver:  Solving for Uy, Initial residual = 0.00595335, Final residual = 9.65246e-06, No Iterations 9
smoothSolver:  Solving for Uz, Initial residual = 0.00616966, Final residual = 8.39068e-06, No Iterations 11
Pressure gradient source: uncorrected Ubar = 0.39, pressure gradient = 0.00238811
GAMG:  Solving for p, Initial residual = 0.0803934, Final residual = 0.00791738, No Iterations 15
time step continuity errors : sum local = 7.20695e-11, global = 2.54203e-20, cumulative = 6.405e-18
Pressure gradient source: uncorrected Ubar = 0.39, pressure gradient = 0.00237857
GAMG:  Solving for p, Initial residual = 0.0664468, Final residual = 9.91397e-07, No Iterations 499
time step continuity errors : sum local = 8.8936e-15, global = -1.36981e-20, cumulative = 6.3913e-18
Pressure gradient source: uncorrected Ubar = 0.39, pressure gradient = 0.00237499
smoothSolver:  Solving for omega, Initial residual = 7.81581e-06, Final residual = 7.81581e-06, No Iterations 0
smoothSolver:  Solving for k, Initial residual = 0.000484911, Final residual = 5.13986e-06, No Iterations 3
ExecutionTime = 54 s  ClockTime = 54 s

Time = 2.85

Courant Number mean: 0.0234002 max: 0.0272856
smoothSolver:  Solving for Ux, Initial residual = 4.49002e-05, Final residual = 7.35911e-06, No Iterations 2
smoothSolver:  Solving for Uy, Initial residual = 0.00629157, Final residual = 8.80274e-06, No Iterations 9
smoothSolver:  Solving for Uz, Initial residual = 0.00597752, Final residual = 8.64637e-06, No Iterations 11
Pressure gradient source: uncorrected Ubar = 0.39, pressure gradient = 0.00238786
GAMG:  Solving for p, Initial residual = 0.0769059, Final residual = 0.00723013, No Iterations 15
time step continuity errors : sum local = 6.58276e-11, global = -3.14953e-20, cumulative = 6.35981e-18
Pressure gradient source: uncorrected Ubar = 0.39, pressure gradient = 0.00237856
GAMG:  Solving for p, Initial residual = 0.0652289, Final residual = 9.98221e-07, No Iterations 533
time step continuity errors : sum local = 8.97697e-15, global = -2.02327e-20, cumulative = 6.33958e-18
Pressure gradient source: uncorrected Ubar = 0.39, pressure gradient = 0.00237506
smoothSolver:  Solving for omega, Initial residual = 9.37193e-06, Final residual = 9.37193e-06, No Iterations 0
smoothSolver:  Solving for k, Initial residual = 0.000494232, Final residual = 5.50568e-06, No Iterations 3
ExecutionTime = 54.86 s  ClockTime = 55 s

Time = 2.9

Courant Number mean: 0.0234002 max: 0.027286
smoothSolver:  Solving for Ux, Initial residual = 4.42044e-05, Final residual = 7.19328e-06, No Iterations 2
smoothSolver:  Solving for Uy, Initial residual = 0.00569694, Final residual = 8.90818e-06, No Iterations 9
smoothSolver:  Solving for Uz, Initial residual = 0.00602266, Final residual = 8.27587e-06, No Iterations 11
Pressure gradient source: uncorrected Ubar = 0.39, pressure gradient = 0.00238764
GAMG:  Solving for p, Initial residual = 0.0742649, Final residual = 0.00732587, No Iterations 16
time step continuity errors : sum local = 6.64969e-11, global = -1.03958e-19, cumulative = 6.23562e-18
Pressure gradient source: uncorrected Ubar = 0.39, pressure gradient = 0.00237855
GAMG:  Solving for p, Initial residual = 0.0630181, Final residual = 9.83326e-07, No Iterations 473
time step continuity errors : sum local = 8.78365e-15, global = -7.48571e-20, cumulative = 6.16076e-18
Pressure gradient source: uncorrected Ubar = 0.39, pressure gradient = 0.00237514
smoothSolver:  Solving for omega, Initial residual = 1.08779e-05, Final residual = 2.59311e-06, No Iterations 1
smoothSolver:  Solving for k, Initial residual = 0.000490287, Final residual = 5.43686e-06, No Iterations 3
ExecutionTime = 55.64 s  ClockTime = 56 s

Time = 2.95

Courant Number mean: 0.0234002 max: 0.0272864
smoothSolver:  Solving for Ux, Initial residual = 4.38125e-05, Final residual = 7.14217e-06, No Iterations 2
smoothSolver:  Solving for Uy, Initial residual = 0.00604051, Final residual = 8.17127e-06, No Iterations 9
smoothSolver:  Solving for Uz, Initial residual = 0.00603248, Final residual = 8.30397e-06, No Iterations 11
Pressure gradient source: uncorrected Ubar = 0.39, pressure gradient = 0.00238795
GAMG:  Solving for p, Initial residual = 0.0777839, Final residual = 0.00722358, No Iterations 14
time step continuity errors : sum local = 6.56485e-11, global = -3.2477e-20, cumulative = 6.12828e-18
Pressure gradient source: uncorrected Ubar = 0.39, pressure gradient = 0.00237883
GAMG:  Solving for p, Initial residual = 0.0649904, Final residual = 9.9409e-07, No Iterations 501
time step continuity errors : sum local = 8.90102e-15, global = 2.93895e-20, cumulative = 6.15767e-18
Pressure gradient source: uncorrected Ubar = 0.39, pressure gradient = 0.00237542
smoothSolver:  Solving for omega, Initial residual = 7.67577e-06, Final residual = 7.67577e-06, No Iterations 0
smoothSolver:  Solving for k, Initial residual = 0.000487485, Final residual = 5.40262e-06, No Iterations 3
ExecutionTime = 56.45 s  ClockTime = 57 s

Time = 3

Courant Number mean: 0.0234002 max: 0.0272869
smoothSolver:  Solving for Ux, Initial residual = 4.31103e-05, Final residual = 6.97776e-06, No Iterations 2
smoothSolver:  Solving for Uy, Initial residual = 0.00545639, Final residual = 8.53704e-06, No Iterations 9
smoothSolver:  Solving for Uz, Initial residual = 0.00602966, Final residual = 8.16676e-06, No Iterations 11
Pressure gradient source: uncorrected Ubar = 0.39, pressure gradient = 0.00238767
GAMG:  Solving for p, Initial residual = 0.0731068, Final residual = 0.00710299, No Iterations 16
time step continuity errors : sum local = 6.40483e-11, global = 3.85528e-20, cumulative = 6.19623e-18
Pressure gradient source: uncorrected Ubar = 0.39, pressure gradient = 0.00237881
GAMG:  Solving for p, Initial residual = 0.0612651, Final residual = 9.92708e-07, No Iterations 465
time step continuity errors : sum local = 8.88868e-15, global = -2.97645e-20, cumulative = 6.16646e-18
Pressure gradient source: uncorrected Ubar = 0.39, pressure gradient = 0.00237549
smoothSolver:  Solving for omega, Initial residual = 9.13066e-06, Final residual = 9.13066e-06, No Iterations 0
smoothSolver:  Solving for k, Initial residual = 0.000497399, Final residual = 5.75466e-06, No Iterations 3
ExecutionTime = 57.21 s  ClockTime = 58 s

[...]
time step continuity errors : sum local = 4.6317e-15, global = 5.00824e-21, cumulative = 1.55044e-16
Pressure gradient source: uncorrected Ubar = 0.39, pressure gradient = 0.00236828
smoothSolver:  Solving for omega, Initial residual = 8.67247e-06, Final residual = 8.67247e-06, No Iterations 0
smoothSolver:  Solving for k, Initial residual = 1.04756e-05, Final residual = 1.97739e-06, No Iterations 1
ExecutionTime = 1219.08 s  ClockTime = 1222 s

Time = 79.3

Courant Number mean: 0.0234001 max: 0.0275362
smoothSolver:  Solving for Ux, Initial residual = 3.8382e-06, Final residual = 3.8382e-06, No Iterations 0
smoothSolver:  Solving for Uy, Initial residual = 0.00257849, Final residual = 9.29567e-06, No Iterations 7
smoothSolver:  Solving for Uz, Initial residual = 0.000687679, Final residual = 6.94718e-06, No Iterations 7
Pressure gradient source: uncorrected Ubar = 0.39, pressure gradient = 0.00236828
GAMG:  Solving for p, Initial residual = 0.0161565, Final residual = 0.00151322, No Iterations 19
time step continuity errors : sum local = 7.15436e-12, global = 1.08648e-20, cumulative = 1.55054e-16
Pressure gradient source: uncorrected Ubar = 0.39, pressure gradient = 0.00236854
GAMG:  Solving for p, Initial residual = 0.0146485, Final residual = 9.92842e-07, No Iterations 435
time step continuity errors : sum local = 4.64547e-15, global = 3.32787e-20, cumulative = 1.55088e-16
Pressure gradient source: uncorrected Ubar = 0.39, pressure gradient = 0.00236828
smoothSolver:  Solving for omega, Initial residual = 8.69994e-06, Final residual = 8.69994e-06, No Iterations 0
smoothSolver:  Solving for k, Initial residual = 1.04849e-05, Final residual = 1.9803e-06, No Iterations 1
ExecutionTime = 1219.83 s  ClockTime = 1223 s

Time = 79.35

Courant Number mean: 0.0234001 max: 0.0275363
smoothSolver:  Solving for Ux, Initial residual = 3.83306e-06, Final residual = 3.83306e-06, No Iterations 0
smoothSolver:  Solving for Uy, Initial residual = 0.00260843, Final residual = 9.16152e-06, No Iterations 7
smoothSolver:  Solving for Uz, Initial residual = 0.000666357, Final residual = 6.71429e-06, No Iterations 7
Pressure gradient source: uncorrected Ubar = 0.39, pressure gradient = 0.00236828
GAMG:  Solving for p, Initial residual = 0.0158878, Final residual = 0.00158722, No Iterations 17
time step continuity errors : sum local = 7.50243e-12, global = -1.83438e-20, cumulative = 1.55069e-16
Pressure gradient source: uncorrected Ubar = 0.39, pressure gradient = 0.00236854
GAMG:  Solving for p, Initial residual = 0.0145306, Final residual = 9.79168e-07, No Iterations 427
time step continuity errors : sum local = 4.5785e-15, global = 6.21537e-20, cumulative = 1.55132e-16
Pressure gradient source: uncorrected Ubar = 0.39, pressure gradient = 0.00236828
smoothSolver:  Solving for omega, Initial residual = 8.72739e-06, Final residual = 8.72739e-06, No Iterations 0
smoothSolver:  Solving for k, Initial residual = 1.0494e-05, Final residual = 1.98253e-06, No Iterations 1
ExecutionTime = 1220.56 s  ClockTime = 1223 s

Time = 79.4

Courant Number mean: 0.0234001 max: 0.0275363
smoothSolver:  Solving for Ux, Initial residual = 3.82792e-06, Final residual = 3.82792e-06, No Iterations 0
smoothSolver:  Solving for Uy, Initial residual = 0.00255395, Final residual = 9.2038e-06, No Iterations 7
smoothSolver:  Solving for Uz, Initial residual = 0.000682566, Final residual = 6.85874e-06, No Iterations 7
Pressure gradient source: uncorrected Ubar = 0.39, pressure gradient = 0.00236828
GAMG:  Solving for p, Initial residual = 0.0160461, Final residual = 0.0015975, No Iterations 17
time step continuity errors : sum local = 7.54708e-12, global = 7.73662e-21, cumulative = 1.55139e-16
Pressure gradient source: uncorrected Ubar = 0.39, pressure gradient = 0.00236853
GAMG:  Solving for p, Initial residual = 0.0146257, Final residual = 9.7966e-07, No Iterations 425
time step continuity errors : sum local = 4.58143e-15, global = 3.03189e-20, cumulative = 1.5517e-16
Pressure gradient source: uncorrected Ubar = 0.39, pressure gradient = 0.00236828
smoothSolver:  Solving for omega, Initial residual = 8.75481e-06, Final residual = 8.75481e-06, No Iterations 0
smoothSolver:  Solving for k, Initial residual = 1.05032e-05, Final residual = 1.98497e-06, No Iterations 1
ExecutionTime = 1221.28 s  ClockTime = 1224 s

Time = 79.45

Courant Number mean: 0.0234001 max: 0.0275364
smoothSolver:  Solving for Ux, Initial residual = 3.82279e-06, Final residual = 3.82279e-06, No Iterations 0
smoothSolver:  Solving for Uy, Initial residual = 0.00257037, Final residual = 9.03862e-06, No Iterations 7
smoothSolver:  Solving for Uz, Initial residual = 0.00068141, Final residual = 6.94128e-06, No Iterations 7
Pressure gradient source: uncorrected Ubar = 0.39, pressure gradient = 0.00236828
GAMG:  Solving for p, Initial residual = 0.0160743, Final residual = 0.00159153, No Iterations 17
time step continuity errors : sum local = 7.51936e-12, global = 7.96152e-20, cumulative = 1.55249e-16
Pressure gradient source: uncorrected Ubar = 0.39, pressure gradient = 0.00236853
GAMG:  Solving for p, Initial residual = 0.0146333, Final residual = 9.81214e-07, No Iterations 427
time step continuity errors : sum local = 4.58674e-15, global = 1.03926e-19, cumulative = 1.55353e-16
Pressure gradient source: uncorrected Ubar = 0.39, pressure gradient = 0.00236828
smoothSolver:  Solving for omega, Initial residual = 8.7822e-06, Final residual = 8.7822e-06, No Iterations 0
smoothSolver:  Solving for k, Initial residual = 1.05119e-05, Final residual = 1.98745e-06, No Iterations 1
ExecutionTime = 1222.02 s  ClockTime = 1225 s

Time = 79.5

Courant Number mean: 0.0234001 max: 0.0275364
smoothSolver:  Solving for Ux, Initial residual = 3.81766e-06, Final residual = 3.81766e-06, No Iterations 0
smoothSolver:  Solving for Uy, Initial residual = 0.0025387, Final residual = 9.17095e-06, No Iterations 7
smoothSolver:  Solving for Uz, Initial residual = 0.000686747, Final residual = 6.91578e-06, No Iterations 7
Pressure gradient source: uncorrected Ubar = 0.39, pressure gradient = 0.00236828
GAMG:  Solving for p, Initial residual = 0.0161185, Final residual = 0.00161089, No Iterations 17
time step continuity errors : sum local = 7.60593e-12, global = 9.49443e-20, cumulative = 1.55448e-16
Pressure gradient source: uncorrected Ubar = 0.39, pressure gradient = 0.00236853
GAMG:  Solving for p, Initial residual = 0.0146049, Final residual = 9.84862e-07, No Iterations 425
time step continuity errors : sum local = 4.60424e-15, global = 1.81133e-19, cumulative = 1.55629e-16
Pressure gradient source: uncorrected Ubar = 0.39, pressure gradient = 0.00236827
smoothSolver:  Solving for omega, Initial residual = 8.80958e-06, Final residual = 8.80958e-06, No Iterations 0
smoothSolver:  Solving for k, Initial residual = 1.052e-05, Final residual = 1.98982e-06, No Iterations 1
ExecutionTime = 1222.75 s  ClockTime = 1225 s

Time = 79.55

Courant Number mean: 0.0234001 max: 0.0275365
smoothSolver:  Solving for Ux, Initial residual = 3.81253e-06, Final residual = 3.81253e-06, No Iterations 0
smoothSolver:  Solving for Uy, Initial residual = 0.00254427, Final residual = 8.99753e-06, No Iterations 7
smoothSolver:  Solving for Uz, Initial residual = 0.000691713, Final residual = 7.02028e-06, No Iterations 7
Pressure gradient source: uncorrected Ubar = 0.39, pressure gradient = 0.00236827
GAMG:  Solving for p, Initial residual = 0.0162695, Final residual = 0.00160023, No Iterations 17
time step continuity errors : sum local = 7.55603e-12, global = 1.60957e-19, cumulative = 1.5579e-16
Pressure gradient source: uncorrected Ubar = 0.39, pressure gradient = 0.00236853
GAMG:  Solving for p, Initial residual = 0.0146425, Final residual = 9.92882e-07, No Iterations 427
time step continuity errors : sum local = 4.63802e-15, global = 3.56974e-20, cumulative = 1.55826e-16
Pressure gradient source: uncorrected Ubar = 0.39, pressure gradient = 0.00236827
smoothSolver:  Solving for omega, Initial residual = 8.83693e-06, Final residual = 8.83693e-06, No Iterations 0
smoothSolver:  Solving for k, Initial residual = 1.05275e-05, Final residual = 1.99246e-06, No Iterations 1
ExecutionTime = 1223.47 s  ClockTime = 1226 s

Time = 79.6

Courant Number mean: 0.0234001 max: 0.0275365
smoothSolver:  Solving for Ux, Initial residual = 3.8074e-06, Final residual = 3.8074e-06, No Iterations 0
smoothSolver:  Solving for Uy, Initial residual = 0.00250967, Final residual = 9.14494e-06, No Iterations 7
smoothSolver:  Solving for Uz, Initial residual = 0.000694762, Final residual = 6.987e-06, No Iterations 7
Pressure gradient source: uncorrected Ubar = 0.39, pressure gradient = 0.00236827
GAMG:  Solving for p, Initial residual = 0.0162759, Final residual = 0.00162073, No Iterations 17
time step continuity errors : sum local = 7.64564e-12, global = 1.21487e-19, cumulative = 1.55947e-16
Pressure gradient source: uncorrected Ubar = 0.39, pressure gradient = 0.00236853
GAMG:  Solving for p, Initial residual = 0.014612, Final residual = 9.80091e-07, No Iterations 427
time step continuity errors : sum local = 4.57776e-15, global = 1.0399e-19, cumulative = 1.56051e-16
Pressure gradient source: uncorrected Ubar = 0.39, pressure gradient = 0.00236827
smoothSolver:  Solving for omega, Initial residual = 8.86426e-06, Final residual = 8.86426e-06, No Iterations 0
smoothSolver:  Solving for k, Initial residual = 1.05348e-05, Final residual = 1.99444e-06, No Iterations 1
ExecutionTime = 1224.2 s  ClockTime = 1227 s

Time = 79.65

Courant Number mean: 0.0234001 max: 0.0275366
smoothSolver:  Solving for Ux, Initial residual = 3.80228e-06, Final residual = 3.80228e-06, No Iterations 0
smoothSolver:  Solving for Uy, Initial residual = 0.0025079, Final residual = 8.98337e-06, No Iterations 7
smoothSolver:  Solving for Uz, Initial residual = 0.000695537, Final residual = 7.08229e-06, No Iterations 7
Pressure gradient source: uncorrected Ubar = 0.39, pressure gradient = 0.00236827
GAMG:  Solving for p, Initial residual = 0.0163214, Final residual = 0.00161043, No Iterations 17
time step continuity errors : sum local = 7.59728e-12, global = 2.11837e-19, cumulative = 1.56263e-16
Pressure gradient source: uncorrected Ubar = 0.39, pressure gradient = 0.00236853
GAMG:  Solving for p, Initial residual = 0.0146421, Final residual = 9.90833e-07, No Iterations 427
time step continuity errors : sum local = 4.62452e-15, global = 1.7222e-19, cumulative = 1.56435e-16
Pressure gradient source: uncorrected Ubar = 0.39, pressure gradient = 0.00236827
smoothSolver:  Solving for omega, Initial residual = 8.89156e-06, Final residual = 8.89156e-06, No Iterations 0
smoothSolver:  Solving for k, Initial residual = 1.05418e-05, Final residual = 1.99624e-06, No Iterations 1
ExecutionTime = 1224.92 s  ClockTime = 1228 s

Time = 79.7

Courant Number mean: 0.0234001 max: 0.0275366
smoothSolver:  Solving for Ux, Initial residual = 3.79716e-06, Final residual = 3.79716e-06, No Iterations 0
smoothSolver:  Solving for Uy, Initial residual = 0.00247461, Final residual = 9.12156e-06, No Iterations 7
smoothSolver:  Solving for Uz, Initial residual = 0.000697466, Final residual = 7.05093e-06, No Iterations 7
Pressure gradient source: uncorrected Ubar = 0.39, pressure gradient = 0.00236827
GAMG:  Solving for p, Initial residual = 0.0163123, Final residual = 0.00163077, No Iterations 17
time step continuity errors : sum local = 7.68599e-12, global = 2.74376e-19, cumulative = 1.5671e-16
Pressure gradient source: uncorrected Ubar = 0.39, pressure gradient = 0.00236853
GAMG:  Solving for p, Initial residual = 0.0146086, Final residual = 9.82586e-07, No Iterations 427
time step continuity errors : sum local = 4.58566e-15, global = 2.52686e-20, cumulative = 1.56735e-16
Pressure gradient source: uncorrected Ubar = 0.39, pressure gradient = 0.00236827
smoothSolver:  Solving for omega, Initial residual = 8.91884e-06, Final residual = 8.91884e-06, No Iterations 0
smoothSolver:  Solving for k, Initial residual = 1.05484e-05, Final residual = 1.9987e-06, No Iterations 1
ExecutionTime = 1225.64 s  ClockTime = 1228 s

Time = 79.75

Courant Number mean: 0.0234001 max: 0.0275367
smoothSolver:  Solving for Ux, Initial residual = 3.79204e-06, Final residual = 3.79204e-06, No Iterations 0
smoothSolver:  Solving for Uy, Initial residual = 0.00247132, Final residual = 8.96337e-06, No Iterations 7
smoothSolver:  Solving for Uz, Initial residual = 0.000698142, Final residual = 7.1413e-06, No Iterations 7
Pressure gradient source: uncorrected Ubar = 0.39, pressure gradient = 0.00236827
GAMG:  Solving for p, Initial residual = 0.0163526, Final residual = 0.00161997, No Iterations 17
time step continuity errors : sum local = 7.63552e-12, global = 1.86971e-19, cumulative = 1.56922e-16
Pressure gradient source: uncorrected Ubar = 0.39, pressure gradient = 0.00236853
GAMG:  Solving for p, Initial residual = 0.0146371, Final residual = 9.87078e-07, No Iterations 427
time step continuity errors : sum local = 4.60322e-15, global = 1.92993e-19, cumulative = 1.57115e-16
Pressure gradient source: uncorrected Ubar = 0.39, pressure gradient = 0.00236827
smoothSolver:  Solving for omega, Initial residual = 8.9461e-06, Final residual = 8.9461e-06, No Iterations 0
smoothSolver:  Solving for k, Initial residual = 1.05545e-05, Final residual = 2.00071e-06, No Iterations 1
ExecutionTime = 1226.36 s  ClockTime = 1229 s

Time = 79.8

Courant Number mean: 0.0234001 max: 0.0275367
smoothSolver:  Solving for Ux, Initial residual = 3.78692e-06, Final residual = 3.78692e-06, No Iterations 0
smoothSolver:  Solving for Uy, Initial residual = 0.0024409, Final residual = 9.09415e-06, No Iterations 7
smoothSolver:  Solving for Uz, Initial residual = 0.000699615, Final residual = 7.10962e-06, No Iterations 7
Pressure gradient source: uncorrected Ubar = 0.39, pressure gradient = 0.00236827
GAMG:  Solving for p, Initial residual = 0.0163414, Final residual = 0.00153133, No Iterations 19
time step continuity errors : sum local = 7.21451e-12, global = 2.0701e-19, cumulative = 1.57322e-16
Pressure gradient source: uncorrected Ubar = 0.39, pressure gradient = 0.00236853
GAMG:  Solving for p, Initial residual = 0.0145611, Final residual = 9.7879e-07, No Iterations 437
time step continuity errors : sum local = 4.56538e-15, global = 1.88831e-19, cumulative = 1.57511e-16
Pressure gradient source: uncorrected Ubar = 0.39, pressure gradient = 0.00236827
smoothSolver:  Solving for omega, Initial residual = 8.97334e-06, Final residual = 8.97334e-06, No Iterations 0
smoothSolver:  Solving for k, Initial residual = 1.056e-05, Final residual = 2.00252e-06, No Iterations 1
ExecutionTime = 1227.1 s  ClockTime = 1230 s

Time = 79.85

Courant Number mean: 0.0234001 max: 0.0275368
smoothSolver:  Solving for Ux, Initial residual = 3.78181e-06, Final residual = 3.78181e-06, No Iterations 0
smoothSolver:  Solving for Uy, Initial residual = 0.00245465, Final residual = 8.98776e-06, No Iterations 7
smoothSolver:  Solving for Uz, Initial residual = 0.000677924, Final residual = 6.8452e-06, No Iterations 7
Pressure gradient source: uncorrected Ubar = 0.39, pressure gradient = 0.00236827
GAMG:  Solving for p, Initial residual = 0.0160551, Final residual = 0.0016024, No Iterations 17
time step continuity errors : sum local = 7.54941e-12, global = 1.22716e-19, cumulative = 1.57634e-16
Pressure gradient source: uncorrected Ubar = 0.39, pressure gradient = 0.00236852
GAMG:  Solving for p, Initial residual = 0.0144404, Final residual = 9.79854e-07, No Iterations 427
time step continuity errors : sum local = 4.5658e-15, global = 1.04115e-19, cumulative = 1.57738e-16
Pressure gradient source: uncorrected Ubar = 0.39, pressure gradient = 0.00236827
smoothSolver:  Solving for omega, Initial residual = 9.00055e-06, Final residual = 9.00055e-06, No Iterations 0
smoothSolver:  Solving for k, Initial residual = 1.05649e-05, Final residual = 2.0046e-06, No Iterations 1
ExecutionTime = 1227.83 s  ClockTime = 1231 s

Time = 79.9

Courant Number mean: 0.0234001 max: 0.0275368
smoothSolver:  Solving for Ux, Initial residual = 3.7767e-06, Final residual = 3.7767e-06, No Iterations 0
smoothSolver:  Solving for Uy, Initial residual = 0.0024014, Final residual = 9.00671e-06, No Iterations 7
smoothSolver:  Solving for Uz, Initial residual = 0.000692418, Final residual = 6.99343e-06, No Iterations 7
Pressure gradient source: uncorrected Ubar = 0.39, pressure gradient = 0.00236827
GAMG:  Solving for p, Initial residual = 0.0162091, Final residual = 0.0016135, No Iterations 17
time step continuity errors : sum local = 7.59195e-12, global = 2.23383e-20, cumulative = 1.5776e-16
Pressure gradient source: uncorrected Ubar = 0.39, pressure gradient = 0.00236852
GAMG:  Solving for p, Initial residual = 0.0145326, Final residual = 9.9151e-07, No Iterations 425
time step continuity errors : sum local = 4.62004e-15, global = 3.53692e-20, cumulative = 1.57795e-16
Pressure gradient source: uncorrected Ubar = 0.39, pressure gradient = 0.00236827
smoothSolver:  Solving for omega, Initial residual = 9.02774e-06, Final residual = 9.02774e-06, No Iterations 0
smoothSolver:  Solving for k, Initial residual = 1.05692e-05, Final residual = 2.00597e-06, No Iterations 1
ExecutionTime = 1228.54 s  ClockTime = 1231 s

Time = 79.95

Courant Number mean: 0.0234001 max: 0.0275369
smoothSolver:  Solving for Ux, Initial residual = 3.7716e-06, Final residual = 3.7716e-06, No Iterations 0
smoothSolver:  Solving for Uy, Initial residual = 0.00240262, Final residual = 8.87581e-06, No Iterations 7
smoothSolver:  Solving for Uz, Initial residual = 0.000692502, Final residual = 7.06485e-06, No Iterations 7
Pressure gradient source: uncorrected Ubar = 0.39, pressure gradient = 0.00236827
GAMG:  Solving for p, Initial residual = 0.0162257, Final residual = 0.00160487, No Iterations 17
time step continuity errors : sum local = 7.5547e-12, global = 7.49142e-21, cumulative = 1.57803e-16
Pressure gradient source: uncorrected Ubar = 0.39, pressure gradient = 0.00236852
GAMG:  Solving for p, Initial residual = 0.014542, Final residual = 9.86059e-07, No Iterations 427
time step continuity errors : sum local = 4.59168e-15, global = 2.24371e-21, cumulative = 1.57805e-16
Pressure gradient source: uncorrected Ubar = 0.39, pressure gradient = 0.00236827
smoothSolver:  Solving for omega, Initial residual = 9.05491e-06, Final residual = 9.05491e-06, No Iterations 0
smoothSolver:  Solving for k, Initial residual = 1.0573e-05, Final residual = 2.00835e-06, No Iterations 1
ExecutionTime = 1229.26 s  ClockTime = 1232 s

Time = 80

Courant Number mean: 0.0234001 max: 0.0275369
smoothSolver:  Solving for Ux, Initial residual = 3.76649e-06, Final residual = 3.76649e-06, No Iterations 0
smoothSolver:  Solving for Uy, Initial residual = 0.00237541, Final residual = 8.98753e-06, No Iterations 7
smoothSolver:  Solving for Uz, Initial residual = 0.000692965, Final residual = 7.0331e-06, No Iterations 7
Pressure gradient source: uncorrected Ubar = 0.39, pressure gradient = 0.00236827
GAMG:  Solving for p, Initial residual = 0.0162153, Final residual = 0.00151664, No Iterations 19
time step continuity errors : sum local = 7.1346e-12, global = 1.11825e-19, cumulative = 1.57917e-16
Pressure gradient source: uncorrected Ubar = 0.39, pressure gradient = 0.00236852
GAMG:  Solving for p, Initial residual = 0.0144692, Final residual = 9.85404e-07, No Iterations 435
time step continuity errors : sum local = 4.58936e-15, global = 1.09538e-19, cumulative = 1.58027e-16
Pressure gradient source: uncorrected Ubar = 0.39, pressure gradient = 0.00236827
smoothSolver:  Solving for omega, Initial residual = 9.08206e-06, Final residual = 9.08206e-06, No Iterations 0
smoothSolver:  Solving for k, Initial residual = 1.05762e-05, Final residual = 2.00949e-06, No Iterations 1
ExecutionTime = 1230.06 s  ClockTime = 1233 s

End

Finalising parallel run
