--------------------------------------------------------------------------
[[5184,1],2]: A high-performance Open MPI point-to-point messaging module
was unable to find any relevant network interfaces:

Module: OpenFabrics (openib)
  Host: hyd37

Another transport will be used instead, although this may result in
lower performance.
--------------------------------------------------------------------------
/*---------------------------------------------------------------------------*\
  =========                 |
  \\      /  F ield         | OpenFOAM: The Open Source CFD Toolbox
   \\    /   O peration     | Website:  https://openfoam.org
    \\  /    A nd           | Version:  6
     \\/     M anipulation  |
\*---------------------------------------------------------------------------*/
Build  : 6-eb0ce5d792a1
Exec   : pisoFoam -parallel
Date   : Jul 04 2022
Time   : 14:36:08
Host   : "hyd37"
PID    : 98907
I/O    : uncollated
--------------------------------------------------------------------------
MPI_ABORT was invoked on rank 0 in communicator MPI COMMUNICATOR 3 SPLIT FROM 0 
with errorcode 1.

NOTE: invoking MPI_ABORT causes Open MPI to kill all MPI processes.
You may or may not see output from other processes, depending on
exactly when Open MPI kills them.
--------------------------------------------------------------------------
